REMARK  Name = ../refined-set-2016/2wqp/2wqp_pocket.pdb
REMARK  267 active torsions:
REMARK  status: ('A' for Active; 'I' for Inactive)
REMARK    1  A    between atoms: _1  and  _3
REMARK    2  A    between atoms: _3  and  _4
REMARK    3  A    between atoms: _3  and  _6
REMARK    4  A    between atoms: _6  and  _7
REMARK    5  A    between atoms: _10  and  _12
REMARK    6  A    between atoms: _12  and  _13
REMARK    7  A    between atoms: _12  and  _15
REMARK    8  A    between atoms: _15  and  _16
REMARK    9  A    between atoms: _16  and  _17
REMARK   10  A    between atoms: _20  and  _22
REMARK   11  A    between atoms: _22  and  _23
REMARK   12  A    between atoms: _22  and  _25
REMARK   13  A    between atoms: _25  and  _26
REMARK   14  A    between atoms: _29  and  _31
REMARK   15  A    between atoms: _31  and  _32
REMARK   16  A    between atoms: _34  and  _36
REMARK   17  A    between atoms: _36  and  _37
REMARK   18  A    between atoms: _36  and  _39
REMARK   19  A    between atoms: _39  and  _40
REMARK   20  A    between atoms: _43  and  _45
REMARK   21  A    between atoms: _45  and  _46
REMARK   22  A    between atoms: _45  and  _48
REMARK   23  A    between atoms: _48  and  _49
REMARK   24  A    between atoms: _54  and  _56
REMARK   25  A    between atoms: _56  and  _57
REMARK   26  A    between atoms: _56  and  _59
REMARK   27  A    between atoms: _59  and  _60
REMARK   28  A    between atoms: _60  and  _61
REMARK   29  A    between atoms: _61  and  _62
REMARK   30  A    between atoms: _62  and  _63
REMARK   31  A    between atoms: _67  and  _69
REMARK   32  A    between atoms: _69  and  _70
REMARK   33  A    between atoms: _69  and  _72
REMARK   34  A    between atoms: _72  and  _73
REMARK   35  A    between atoms: _78  and  _80
REMARK   36  A    between atoms: _80  and  _81
REMARK   37  A    between atoms: _80  and  _83
REMARK   38  A    between atoms: _83  and  _84
REMARK   39  A    between atoms: _84  and  _85
REMARK   40  A    between atoms: _90  and  _92
REMARK   41  A    between atoms: _92  and  _93
REMARK   42  A    between atoms: _92  and  _95
REMARK   43  A    between atoms: _95  and  _96
REMARK   44  A    between atoms: _99  and  _101
REMARK   45  A    between atoms: _101  and  _102
REMARK   46  A    between atoms: _101  and  _104
REMARK   47  A    between atoms: _104  and  _105
REMARK   48  A    between atoms: _110  and  _112
REMARK   49  A    between atoms: _112  and  _113
REMARK   50  A    between atoms: _112  and  _115
REMARK   51  A    between atoms: _115  and  _116
REMARK   52  A    between atoms: _116  and  _117
REMARK   53  A    between atoms: _120  and  _122
REMARK   54  A    between atoms: _122  and  _123
REMARK   55  A    between atoms: _122  and  _125
REMARK   56  A    between atoms: _125  and  _126
REMARK   57  A    between atoms: _130  and  _131
REMARK   58  A    between atoms: _136  and  _138
REMARK   59  A    between atoms: _138  and  _139
REMARK   60  A    between atoms: _141  and  _143
REMARK   61  A    between atoms: _143  and  _144
REMARK   62  A    between atoms: _143  and  _146
REMARK   63  A    between atoms: _146  and  _147
REMARK   64  A    between atoms: _152  and  _154
REMARK   65  A    between atoms: _154  and  _155
REMARK   66  A    between atoms: _158  and  _160
REMARK   67  A    between atoms: _160  and  _161
REMARK   68  A    between atoms: _160  and  _163
REMARK   69  A    between atoms: _166  and  _168
REMARK   70  A    between atoms: _168  and  _169
REMARK   71  A    between atoms: _168  and  _171
REMARK   72  A    between atoms: _171  and  _172
REMARK   73  A    between atoms: _174  and  _176
REMARK   74  A    between atoms: _176  and  _177
REMARK   75  A    between atoms: _176  and  _179
REMARK   76  A    between atoms: _179  and  _180
REMARK   77  A    between atoms: _183  and  _185
REMARK   78  A    between atoms: _185  and  _186
REMARK   79  A    between atoms: _185  and  _188
REMARK   80  A    between atoms: _188  and  _189
REMARK   81  A    between atoms: _192  and  _194
REMARK   82  A    between atoms: _194  and  _195
REMARK   83  A    between atoms: _194  and  _197
REMARK   84  A    between atoms: _197  and  _198
REMARK   85  A    between atoms: _198  and  _199
REMARK   86  A    between atoms: _201  and  _203
REMARK   87  A    between atoms: _203  and  _204
REMARK   88  A    between atoms: _203  and  _206
REMARK   89  A    between atoms: _206  and  _207
REMARK   90  A    between atoms: _207  and  _208
REMARK   91  A    between atoms: _208  and  _209
REMARK   92  A    between atoms: _218  and  _220
REMARK   93  A    between atoms: _220  and  _221
REMARK   94  A    between atoms: _220  and  _223
REMARK   95  A    between atoms: _225  and  _227
REMARK   96  A    between atoms: _227  and  _228
REMARK   97  A    between atoms: _227  and  _230
REMARK   98  A    between atoms: _230  and  _231
REMARK   99  A    between atoms: _233  and  _235
REMARK  100  A    between atoms: _235  and  _236
REMARK  101  A    between atoms: _235  and  _238
REMARK  102  A    between atoms: _238  and  _239
REMARK  103  A    between atoms: _242  and  _244
REMARK  104  A    between atoms: _244  and  _245
REMARK  105  A    between atoms: _244  and  _247
REMARK  106  A    between atoms: _247  and  _248
REMARK  107  A    between atoms: _251  and  _253
REMARK  108  A    between atoms: _253  and  _254
REMARK  109  A    between atoms: _253  and  _256
REMARK  110  A    between atoms: _256  and  _257
REMARK  111  A    between atoms: _263  and  _265
REMARK  112  A    between atoms: _265  and  _266
REMARK  113  A    between atoms: _265  and  _268
REMARK  114  A    between atoms: _268  and  _269
REMARK  115  A    between atoms: _269  and  _270
REMARK  116  A    between atoms: _270  and  _271
REMARK  117  A    between atoms: _271  and  _272
REMARK  118  A    between atoms: _276  and  _278
REMARK  119  A    between atoms: _278  and  _279
REMARK  120  A    between atoms: _278  and  _281
REMARK  121  A    between atoms: _281  and  _282
REMARK  122  A    between atoms: _285  and  _287
REMARK  123  A    between atoms: _287  and  _288
REMARK  124  A    between atoms: _290  and  _292
REMARK  125  A    between atoms: _292  and  _293
REMARK  126  A    between atoms: _292  and  _295
REMARK  127  A    between atoms: _295  and  _296
REMARK  128  A    between atoms: _298  and  _300
REMARK  129  A    between atoms: _300  and  _301
REMARK  130  A    between atoms: _303  and  _305
REMARK  131  A    between atoms: _305  and  _306
REMARK  132  A    between atoms: _305  and  _308
REMARK  133  A    between atoms: _308  and  _309
REMARK  134  A    between atoms: _309  and  _310
REMARK  135  A    between atoms: _313  and  _315
REMARK  136  A    between atoms: _315  and  _316
REMARK  137  A    between atoms: _315  and  _318
REMARK  138  A    between atoms: _320  and  _322
REMARK  139  A    between atoms: _322  and  _323
REMARK  140  A    between atoms: _322  and  _325
REMARK  141  A    between atoms: _325  and  _326
REMARK  142  A    between atoms: _329  and  _331
REMARK  143  A    between atoms: _331  and  _332
REMARK  144  A    between atoms: _331  and  _334
REMARK  145  A    between atoms: _334  and  _335
REMARK  146  A    between atoms: _338  and  _340
REMARK  147  A    between atoms: _340  and  _341
REMARK  148  A    between atoms: _340  and  _343
REMARK  149  A    between atoms: _343  and  _344
REMARK  150  A    between atoms: _346  and  _348
REMARK  151  A    between atoms: _348  and  _349
REMARK  152  A    between atoms: _348  and  _351
REMARK  153  A    between atoms: _351  and  _352
REMARK  154  A    between atoms: _355  and  _357
REMARK  155  A    between atoms: _357  and  _358
REMARK  156  A    between atoms: _360  and  _362
REMARK  157  A    between atoms: _362  and  _363
REMARK  158  A    between atoms: _362  and  _365
REMARK  159  A    between atoms: _365  and  _366
REMARK  160  A    between atoms: _366  and  _367
REMARK  161  A    between atoms: _369  and  _371
REMARK  162  A    between atoms: _371  and  _372
REMARK  163  A    between atoms: _371  and  _374
REMARK  164  A    between atoms: _374  and  _375
REMARK  165  A    between atoms: _380  and  _382
REMARK  166  A    between atoms: _382  and  _383
REMARK  167  A    between atoms: _382  and  _385
REMARK  168  A    between atoms: _385  and  _386
REMARK  169  A    between atoms: _389  and  _391
REMARK  170  A    between atoms: _391  and  _392
REMARK  171  A    between atoms: _391  and  _394
REMARK  172  A    between atoms: _394  and  _395
REMARK  173  A    between atoms: _400  and  _402
REMARK  174  A    between atoms: _402  and  _403
REMARK  175  A    between atoms: _402  and  _405
REMARK  176  A    between atoms: _407  and  _409
REMARK  177  A    between atoms: _409  and  _410
REMARK  178  A    between atoms: _409  and  _412
REMARK  179  A    between atoms: _412  and  _413
REMARK  180  A    between atoms: _416  and  _418
REMARK  181  A    between atoms: _418  and  _419
REMARK  182  A    between atoms: _418  and  _421
REMARK  183  A    between atoms: _421  and  _422
REMARK  184  A    between atoms: _427  and  _429
REMARK  185  A    between atoms: _429  and  _430
REMARK  186  A    between atoms: _429  and  _432
REMARK  187  A    between atoms: _432  and  _433
REMARK  188  A    between atoms: _436  and  _438
REMARK  189  A    between atoms: _438  and  _439
REMARK  190  A    between atoms: _438  and  _441
REMARK  191  A    between atoms: _441  and  _442
REMARK  192  A    between atoms: _447  and  _448
REMARK  193  A    between atoms: _450  and  _452
REMARK  194  A    between atoms: _452  and  _453
REMARK  195  A    between atoms: _452  and  _455
REMARK  196  A    between atoms: _455  and  _456
REMARK  197  A    between atoms: _459  and  _461
REMARK  198  A    between atoms: _461  and  _462
REMARK  199  A    between atoms: _461  and  _464
REMARK  200  A    between atoms: _464  and  _465
REMARK  201  A    between atoms: _467  and  _469
REMARK  202  A    between atoms: _469  and  _470
REMARK  203  A    between atoms: _469  and  _472
REMARK  204  A    between atoms: _472  and  _473
REMARK  205  A    between atoms: _476  and  _478
REMARK  206  A    between atoms: _478  and  _479
REMARK  207  A    between atoms: _478  and  _481
REMARK  208  A    between atoms: _481  and  _482
REMARK  209  A    between atoms: _486  and  MN_638
REMARK  210  A    between atoms: _487  and  _489
REMARK  211  A    between atoms: _489  and  _490
REMARK  212  A    between atoms: _489  and  _492
REMARK  213  A    between atoms: _492  and  _493
REMARK  214  A    between atoms: _493  and  _494
REMARK  215  A    between atoms: _497  and  _499
REMARK  216  A    between atoms: _499  and  _500
REMARK  217  A    between atoms: _499  and  _502
REMARK  218  A    between atoms: _502  and  _503
REMARK  219  A    between atoms: _503  and  _504
REMARK  220  A    between atoms: _504  and  _505
REMARK  221  A    between atoms: _514  and  _516
REMARK  222  A    between atoms: _516  and  _517
REMARK  223  A    between atoms: _516  and  _519
REMARK  224  A    between atoms: _519  and  _520
REMARK  225  A    between atoms: _524  and  MN_638
REMARK  226  A    between atoms: _525  and  _527
REMARK  227  A    between atoms: _527  and  _528
REMARK  228  A    between atoms: _531  and  _532
REMARK  229  A    between atoms: _537  and  _539
REMARK  230  A    between atoms: _539  and  _540
REMARK  231  A    between atoms: _539  and  _542
REMARK  232  A    between atoms: _542  and  _543
REMARK  233  A    between atoms: _546  and  _548
REMARK  234  A    between atoms: _548  and  _549
REMARK  235  A    between atoms: _548  and  _551
REMARK  236  A    between atoms: _551  and  _552
REMARK  237  A    between atoms: _555  and  _557
REMARK  238  A    between atoms: _557  and  _558
REMARK  239  A    between atoms: _557  and  _560
REMARK  240  A    between atoms: _563  and  _564
REMARK  241  A    between atoms: _569  and  _571
REMARK  242  A    between atoms: _571  and  _572
REMARK  243  A    between atoms: _571  and  _574
REMARK  244  A    between atoms: _574  and  _575
REMARK  245  A    between atoms: _578  and  _580
REMARK  246  A    between atoms: _580  and  _581
REMARK  247  A    between atoms: _580  and  _583
REMARK  248  A    between atoms: _583  and  _584
REMARK  249  A    between atoms: _584  and  _585
REMARK  250  A    between atoms: _585  and  _586
REMARK  251  A    between atoms: _586  and  _587
REMARK  252  A    between atoms: _591  and  _593
REMARK  253  A    between atoms: _593  and  _594
REMARK  254  A    between atoms: _593  and  _596
REMARK  255  A    between atoms: _596  and  _597
REMARK  256  A    between atoms: _603  and  _605
REMARK  257  A    between atoms: _605  and  _606
REMARK  258  A    between atoms: _609  and  _611
REMARK  259  A    between atoms: _611  and  _612
REMARK  260  A    between atoms: _611  and  _614
REMARK  261  A    between atoms: _614  and  _615
REMARK  262  A    between atoms: _621  and  _623
REMARK  263  A    between atoms: _623  and  _624
REMARK  264  A    between atoms: _623  and  _626
REMARK  265  A    between atoms: _626  and  _627
REMARK  266  A    between atoms: _627  and  _628
REMARK  267  A    between atoms: _628  and  _629
REMARK                            x       y       z     vdW  Elec       q    Type
REMARK                         _______ _______ _______ _____ _____    ______ ____
ROOT
ATOM      1  CA  ILE A   1     102.075 -10.692  49.512  0.00  0.00    +0.133 C 
ENDROOT
BRANCH   1   2
ATOM      2  N   ILE A   1     101.407  -9.447  49.805  0.00  0.00    -0.239 NA
ATOM      3  H   ILE A   1     100.564  -9.456  50.415  0.00  0.00    +0.142 HD
ENDBRANCH   1   2
BRANCH   1   4
ATOM      4  CB  ILE A   1     102.031 -11.612  50.734  0.00  0.00    +0.023 C 
ATOM      5  CG2 ILE A   1     102.588 -12.978  50.384  0.00  0.00    +0.002 C 
BRANCH   4   6
ATOM      6  CG1 ILE A   1     102.818 -10.975  51.897  0.00  0.00    +0.002 C 
ATOM      7  CD1 ILE A   1     102.699 -11.773  53.194  0.00  0.00    +0.000 C 
ENDBRANCH   4   6
ENDBRANCH   1   4
BRANCH   1   8
ATOM      8  C   ILE A   1     101.343 -11.337  48.339  0.00  0.00    +0.224 C 
ATOM      9  O   ILE A   1     100.155 -11.633  48.443  0.00  0.00    -0.287 OA
ENDBRANCH   1   8
TORSDOF 4
REMARK  Name = ../refined-set-2016/2wqp/2wqp_pocket.pdb
REMARK  267 active torsions:
REMARK  status: ('A' for Active; 'I' for Inactive)
REMARK    1  A    between atoms: _1  and  _3
REMARK    2  A    between atoms: _3  and  _4
REMARK    3  A    between atoms: _3  and  _6
REMARK    4  A    between atoms: _6  and  _7
REMARK    5  A    between atoms: _10  and  _12
REMARK    6  A    between atoms: _12  and  _13
REMARK    7  A    between atoms: _12  and  _15
REMARK    8  A    between atoms: _15  and  _16
REMARK    9  A    between atoms: _16  and  _17
REMARK   10  A    between atoms: _20  and  _22
REMARK   11  A    between atoms: _22  and  _23
REMARK   12  A    between atoms: _22  and  _25
REMARK   13  A    between atoms: _25  and  _26
REMARK   14  A    between atoms: _29  and  _31
REMARK   15  A    between atoms: _31  and  _32
REMARK   16  A    between atoms: _34  and  _36
REMARK   17  A    between atoms: _36  and  _37
REMARK   18  A    between atoms: _36  and  _39
REMARK   19  A    between atoms: _39  and  _40
REMARK   20  A    between atoms: _43  and  _45
REMARK   21  A    between atoms: _45  and  _46
REMARK   22  A    between atoms: _45  and  _48
REMARK   23  A    between atoms: _48  and  _49
REMARK   24  A    between atoms: _54  and  _56
REMARK   25  A    between atoms: _56  and  _57
REMARK   26  A    between atoms: _56  and  _59
REMARK   27  A    between atoms: _59  and  _60
REMARK   28  A    between atoms: _60  and  _61
REMARK   29  A    between atoms: _61  and  _62
REMARK   30  A    between atoms: _62  and  _63
REMARK   31  A    between atoms: _67  and  _69
REMARK   32  A    between atoms: _69  and  _70
REMARK   33  A    between atoms: _69  and  _72
REMARK   34  A    between atoms: _72  and  _73
REMARK   35  A    between atoms: _78  and  _80
REMARK   36  A    between atoms: _80  and  _81
REMARK   37  A    between atoms: _80  and  _83
REMARK   38  A    between atoms: _83  and  _84
REMARK   39  A    between atoms: _84  and  _85
REMARK   40  A    between atoms: _90  and  _92
REMARK   41  A    between atoms: _92  and  _93
REMARK   42  A    between atoms: _92  and  _95
REMARK   43  A    between atoms: _95  and  _96
REMARK   44  A    between atoms: _99  and  _101
REMARK   45  A    between atoms: _101  and  _102
REMARK   46  A    between atoms: _101  and  _104
REMARK   47  A    between atoms: _104  and  _105
REMARK   48  A    between atoms: _110  and  _112
REMARK   49  A    between atoms: _112  and  _113
REMARK   50  A    between atoms: _112  and  _115
REMARK   51  A    between atoms: _115  and  _116
REMARK   52  A    between atoms: _116  and  _117
REMARK   53  A    between atoms: _120  and  _122
REMARK   54  A    between atoms: _122  and  _123
REMARK   55  A    between atoms: _122  and  _125
REMARK   56  A    between atoms: _125  and  _126
REMARK   57  A    between atoms: _130  and  _131
REMARK   58  A    between atoms: _136  and  _138
REMARK   59  A    between atoms: _138  and  _139
REMARK   60  A    between atoms: _141  and  _143
REMARK   61  A    between atoms: _143  and  _144
REMARK   62  A    between atoms: _143  and  _146
REMARK   63  A    between atoms: _146  and  _147
REMARK   64  A    between atoms: _152  and  _154
REMARK   65  A    between atoms: _154  and  _155
REMARK   66  A    between atoms: _158  and  _160
REMARK   67  A    between atoms: _160  and  _161
REMARK   68  A    between atoms: _160  and  _163
REMARK   69  A    between atoms: _166  and  _168
REMARK   70  A    between atoms: _168  and  _169
REMARK   71  A    between atoms: _168  and  _171
REMARK   72  A    between atoms: _171  and  _172
REMARK   73  A    between atoms: _174  and  _176
REMARK   74  A    between atoms: _176  and  _177
REMARK   75  A    between atoms: _176  and  _179
REMARK   76  A    between atoms: _179  and  _180
REMARK   77  A    between atoms: _183  and  _185
REMARK   78  A    between atoms: _185  and  _186
REMARK   79  A    between atoms: _185  and  _188
REMARK   80  A    between atoms: _188  and  _189
REMARK   81  A    between atoms: _192  and  _194
REMARK   82  A    between atoms: _194  and  _195
REMARK   83  A    between atoms: _194  and  _197
REMARK   84  A    between atoms: _197  and  _198
REMARK   85  A    between atoms: _198  and  _199
REMARK   86  A    between atoms: _201  and  _203
REMARK   87  A    between atoms: _203  and  _204
REMARK   88  A    between atoms: _203  and  _206
REMARK   89  A    between atoms: _206  and  _207
REMARK   90  A    between atoms: _207  and  _208
REMARK   91  A    between atoms: _208  and  _209
REMARK   92  A    between atoms: _218  and  _220
REMARK   93  A    between atoms: _220  and  _221
REMARK   94  A    between atoms: _220  and  _223
REMARK   95  A    between atoms: _225  and  _227
REMARK   96  A    between atoms: _227  and  _228
REMARK   97  A    between atoms: _227  and  _230
REMARK   98  A    between atoms: _230  and  _231
REMARK   99  A    between atoms: _233  and  _235
REMARK  100  A    between atoms: _235  and  _236
REMARK  101  A    between atoms: _235  and  _238
REMARK  102  A    between atoms: _238  and  _239
REMARK  103  A    between atoms: _242  and  _244
REMARK  104  A    between atoms: _244  and  _245
REMARK  105  A    between atoms: _244  and  _247
REMARK  106  A    between atoms: _247  and  _248
REMARK  107  A    between atoms: _251  and  _253
REMARK  108  A    between atoms: _253  and  _254
REMARK  109  A    between atoms: _253  and  _256
REMARK  110  A    between atoms: _256  and  _257
REMARK  111  A    between atoms: _263  and  _265
REMARK  112  A    between atoms: _265  and  _266
REMARK  113  A    between atoms: _265  and  _268
REMARK  114  A    between atoms: _268  and  _269
REMARK  115  A    between atoms: _269  and  _270
REMARK  116  A    between atoms: _270  and  _271
REMARK  117  A    between atoms: _271  and  _272
REMARK  118  A    between atoms: _276  and  _278
REMARK  119  A    between atoms: _278  and  _279
REMARK  120  A    between atoms: _278  and  _281
REMARK  121  A    between atoms: _281  and  _282
REMARK  122  A    between atoms: _285  and  _287
REMARK  123  A    between atoms: _287  and  _288
REMARK  124  A    between atoms: _290  and  _292
REMARK  125  A    between atoms: _292  and  _293
REMARK  126  A    between atoms: _292  and  _295
REMARK  127  A    between atoms: _295  and  _296
REMARK  128  A    between atoms: _298  and  _300
REMARK  129  A    between atoms: _300  and  _301
REMARK  130  A    between atoms: _303  and  _305
REMARK  131  A    between atoms: _305  and  _306
REMARK  132  A    between atoms: _305  and  _308
REMARK  133  A    between atoms: _308  and  _309
REMARK  134  A    between atoms: _309  and  _310
REMARK  135  A    between atoms: _313  and  _315
REMARK  136  A    between atoms: _315  and  _316
REMARK  137  A    between atoms: _315  and  _318
REMARK  138  A    between atoms: _320  and  _322
REMARK  139  A    between atoms: _322  and  _323
REMARK  140  A    between atoms: _322  and  _325
REMARK  141  A    between atoms: _325  and  _326
REMARK  142  A    between atoms: _329  and  _331
REMARK  143  A    between atoms: _331  and  _332
REMARK  144  A    between atoms: _331  and  _334
REMARK  145  A    between atoms: _334  and  _335
REMARK  146  A    between atoms: _338  and  _340
REMARK  147  A    between atoms: _340  and  _341
REMARK  148  A    between atoms: _340  and  _343
REMARK  149  A    between atoms: _343  and  _344
REMARK  150  A    between atoms: _346  and  _348
REMARK  151  A    between atoms: _348  and  _349
REMARK  152  A    between atoms: _348  and  _351
REMARK  153  A    between atoms: _351  and  _352
REMARK  154  A    between atoms: _355  and  _357
REMARK  155  A    between atoms: _357  and  _358
REMARK  156  A    between atoms: _360  and  _362
REMARK  157  A    between atoms: _362  and  _363
REMARK  158  A    between atoms: _362  and  _365
REMARK  159  A    between atoms: _365  and  _366
REMARK  160  A    between atoms: _366  and  _367
REMARK  161  A    between atoms: _369  and  _371
REMARK  162  A    between atoms: _371  and  _372
REMARK  163  A    between atoms: _371  and  _374
REMARK  164  A    between atoms: _374  and  _375
REMARK  165  A    between atoms: _380  and  _382
REMARK  166  A    between atoms: _382  and  _383
REMARK  167  A    between atoms: _382  and  _385
REMARK  168  A    between atoms: _385  and  _386
REMARK  169  A    between atoms: _389  and  _391
REMARK  170  A    between atoms: _391  and  _392
REMARK  171  A    between atoms: _391  and  _394
REMARK  172  A    between atoms: _394  and  _395
REMARK  173  A    between atoms: _400  and  _402
REMARK  174  A    between atoms: _402  and  _403
REMARK  175  A    between atoms: _402  and  _405
REMARK  176  A    between atoms: _407  and  _409
REMARK  177  A    between atoms: _409  and  _410
REMARK  178  A    between atoms: _409  and  _412
REMARK  179  A    between atoms: _412  and  _413
REMARK  180  A    between atoms: _416  and  _418
REMARK  181  A    between atoms: _418  and  _419
REMARK  182  A    between atoms: _418  and  _421
REMARK  183  A    between atoms: _421  and  _422
REMARK  184  A    between atoms: _427  and  _429
REMARK  185  A    between atoms: _429  and  _430
REMARK  186  A    between atoms: _429  and  _432
REMARK  187  A    between atoms: _432  and  _433
REMARK  188  A    between atoms: _436  and  _438
REMARK  189  A    between atoms: _438  and  _439
REMARK  190  A    between atoms: _438  and  _441
REMARK  191  A    between atoms: _441  and  _442
REMARK  192  A    between atoms: _447  and  _448
REMARK  193  A    between atoms: _450  and  _452
REMARK  194  A    between atoms: _452  and  _453
REMARK  195  A    between atoms: _452  and  _455
REMARK  196  A    between atoms: _455  and  _456
REMARK  197  A    between atoms: _459  and  _461
REMARK  198  A    between atoms: _461  and  _462
REMARK  199  A    between atoms: _461  and  _464
REMARK  200  A    between atoms: _464  and  _465
REMARK  201  A    between atoms: _467  and  _469
REMARK  202  A    between atoms: _469  and  _470
REMARK  203  A    between atoms: _469  and  _472
REMARK  204  A    between atoms: _472  and  _473
REMARK  205  A    between atoms: _476  and  _478
REMARK  206  A    between atoms: _478  and  _479
REMARK  207  A    between atoms: _478  and  _481
REMARK  208  A    between atoms: _481  and  _482
REMARK  209  A    between atoms: _486  and  MN_638
REMARK  210  A    between atoms: _487  and  _489
REMARK  211  A    between atoms: _489  and  _490
REMARK  212  A    between atoms: _489  and  _492
REMARK  213  A    between atoms: _492  and  _493
REMARK  214  A    between atoms: _493  and  _494
REMARK  215  A    between atoms: _497  and  _499
REMARK  216  A    between atoms: _499  and  _500
REMARK  217  A    between atoms: _499  and  _502
REMARK  218  A    between atoms: _502  and  _503
REMARK  219  A    between atoms: _503  and  _504
REMARK  220  A    between atoms: _504  and  _505
REMARK  221  A    between atoms: _514  and  _516
REMARK  222  A    between atoms: _516  and  _517
REMARK  223  A    between atoms: _516  and  _519
REMARK  224  A    between atoms: _519  and  _520
REMARK  225  A    between atoms: _524  and  MN_638
REMARK  226  A    between atoms: _525  and  _527
REMARK  227  A    between atoms: _527  and  _528
REMARK  228  A    between atoms: _531  and  _532
REMARK  229  A    between atoms: _537  and  _539
REMARK  230  A    between atoms: _539  and  _540
REMARK  231  A    between atoms: _539  and  _542
REMARK  232  A    between atoms: _542  and  _543
REMARK  233  A    between atoms: _546  and  _548
REMARK  234  A    between atoms: _548  and  _549
REMARK  235  A    between atoms: _548  and  _551
REMARK  236  A    between atoms: _551  and  _552
REMARK  237  A    between atoms: _555  and  _557
REMARK  238  A    between atoms: _557  and  _558
REMARK  239  A    between atoms: _557  and  _560
REMARK  240  A    between atoms: _563  and  _564
REMARK  241  A    between atoms: _569  and  _571
REMARK  242  A    between atoms: _571  and  _572
REMARK  243  A    between atoms: _571  and  _574
REMARK  244  A    between atoms: _574  and  _575
REMARK  245  A    between atoms: _578  and  _580
REMARK  246  A    between atoms: _580  and  _581
REMARK  247  A    between atoms: _580  and  _583
REMARK  248  A    between atoms: _583  and  _584
REMARK  249  A    between atoms: _584  and  _585
REMARK  250  A    between atoms: _585  and  _586
REMARK  251  A    between atoms: _586  and  _587
REMARK  252  A    between atoms: _591  and  _593
REMARK  253  A    between atoms: _593  and  _594
REMARK  254  A    between atoms: _593  and  _596
REMARK  255  A    between atoms: _596  and  _597
REMARK  256  A    between atoms: _603  and  _605
REMARK  257  A    between atoms: _605  and  _606
REMARK  258  A    between atoms: _609  and  _611
REMARK  259  A    between atoms: _611  and  _612
REMARK  260  A    between atoms: _611  and  _614
REMARK  261  A    between atoms: _614  and  _615
REMARK  262  A    between atoms: _621  and  _623
REMARK  263  A    between atoms: _623  and  _624
REMARK  264  A    between atoms: _623  and  _626
REMARK  265  A    between atoms: _626  and  _627
REMARK  266  A    between atoms: _627  and  _628
REMARK  267  A    between atoms: _628  and  _629
REMARK                            x       y       z     vdW  Elec       q    Type
REMARK                         _______ _______ _______ _____ _____    ______ ____
ROOT
ATOM      1  CA  GLY A   3     101.103 -21.002  45.940  0.00  0.00    +0.176 C 
ENDROOT
BRANCH   1   3
ATOM      2  C   ILE A   2     101.191 -19.300  44.191  0.00  0.00    +0.241 C 
ATOM      3  N   GLY A   3     101.537 -19.718  45.408  0.00  0.00    -0.295 N 
ATOM      4  H   GLY A   3     102.137 -19.107  45.998  0.00  0.00    +0.150 HD
ATOM      5  O   ILE A   2     100.510 -19.975  43.430  0.00  0.00    -0.273 OA
BRANCH   2   6
ATOM      6  CA  ILE A   2     101.623 -17.898  43.802  0.00  0.00    +0.148 C 
BRANCH   6   9
ATOM      7  C   GLU A   1     100.585 -16.621  45.563  0.00  0.00    +0.238 C 
ATOM      8  O   GLU A   1      99.472 -16.842  45.089  0.00  0.00    -0.274 OA
ATOM      9  N   ILE A   2     101.691 -17.052  44.978  0.00  0.00    -0.297 N 
ATOM     10  H   ILE A   2     102.618 -16.782  45.365  0.00  0.00    +0.150 HD
BRANCH   7  11
ATOM     11  CA  GLU A   1     100.757 -15.813  46.857  0.00  0.00    +0.145 C 
BRANCH  11  12
ATOM     12  N   GLU A   1     100.672 -14.393  46.567  0.00  0.00    -0.238 NA
ATOM     13  H   GLU A   1      99.754 -13.914  46.660  0.00  0.00    +0.142 HD
ENDBRANCH  11  12
BRANCH  11  14
ATOM     14  CB  GLU A   1      99.676 -16.160  47.896  0.00  0.00    +0.038 C 
BRANCH  14  15
ATOM     15  CG  GLU A   1      99.206 -17.586  47.884  0.00  0.00    +0.116 C 
BRANCH  15  16
ATOM     16  CD  GLU A   1     100.182 -18.548  48.466  0.00  0.00    +0.365 C 
ATOM     17  OE2 GLU A   1      99.727 -19.365  49.315  0.00  0.00    -0.246 OA
ATOM     18  OE1 GLU A   1     101.384 -18.505  48.084  0.00  0.00    -0.246 OA
ENDBRANCH  15  16
ENDBRANCH  14  15
ENDBRANCH  11  14
ENDBRANCH   7  11
ENDBRANCH   6   9
BRANCH   6  19
ATOM     19  CB  ILE A   2     102.977 -17.941  43.065  0.00  0.00    +0.027 C 
ATOM     20  CG2 ILE A   2     102.996 -19.060  42.030  0.00  0.00    +0.002 C 
BRANCH  19  21
ATOM     21  CG1 ILE A   2     103.256 -16.590  42.409  0.00  0.00    +0.002 C 
ATOM     22  CD1 ILE A   2     102.226 -16.185  41.475  0.00  0.00    +0.000 C 
ENDBRANCH  19  21
ENDBRANCH   6  19
ENDBRANCH   2   6
ENDBRANCH   1   3
BRANCH   1  23
ATOM     23  C   GLY A   3     101.292 -22.191  45.021  0.00  0.00    +0.243 C 
ATOM     24  N   ILE A   4     100.189 -22.870  44.739  0.00  0.00    -0.297 N 
ATOM     25  H   ILE A   4      99.290 -22.570  45.167  0.00  0.00    +0.150 HD
ATOM     26  O   GLY A   3     102.420 -22.505  44.588  0.00  0.00    -0.273 OA
BRANCH  24  27
ATOM     27  CA  ILE A   4     100.196 -24.015  43.856  0.00  0.00    +0.149 C 
BRANCH  27  28
ATOM     28  C   ILE A   4      99.701 -23.645  42.474  0.00  0.00    +0.241 C 
ATOM     29  N   ASN A   5      99.528 -22.347  42.226  0.00  0.00    -0.298 N 
ATOM     30  H   ASN A   5      99.787 -21.652  42.955  0.00  0.00    +0.150 HD
ATOM     31  O   ILE A   4      99.521 -24.528  41.640  0.00  0.00    -0.273 OA
BRANCH  29  32
ATOM     32  CA  ASN A   5      98.984 -21.879  40.955  0.00  0.00    +0.146 C 
BRANCH  32  33
ATOM     33  C   ASN A   5      99.799 -22.268  39.721  0.00  0.00    +0.227 C 
ATOM     34  O   ASN A   5      99.278 -22.250  38.599  0.00  0.00    -0.286 OA
ENDBRANCH  32  33
BRANCH  32  35
ATOM     35  CB  ASN A   5      98.776 -20.358  40.975  0.00  0.00    +0.112 C 
BRANCH  35  36
ATOM     36  CG  ASN A   5      97.615 -19.925  41.854  0.00  0.00    +0.222 C 
ATOM     37  OD1 ASN A   5      96.828 -20.753  42.313  0.00  0.00    -0.275 OA
ATOM     38  ND2 ASN A   5      97.493 -18.611  42.086  0.00  0.00    -0.329 N 
ATOM     39 HD21 ASN A   5      96.711 -18.257  42.673  0.00  0.00    +0.145 HD
ATOM     40 HD22 ASN A   5      98.180 -17.945  41.679  0.00  0.00    +0.145 HD
ENDBRANCH  35  36
ENDBRANCH  32  35
ENDBRANCH  29  32
ENDBRANCH  27  28
BRANCH  27  41
ATOM     41  CB  ILE A   4      99.348 -25.190  44.386  0.00  0.00    +0.027 C 
ATOM     42  CG2 ILE A   4     100.027 -25.813  45.611  0.00  0.00    +0.002 C 
BRANCH  41  43
ATOM     43  CG1 ILE A   4      97.910 -24.743  44.690  0.00  0.00    +0.002 C 
ATOM     44  CD1 ILE A   4      96.901 -25.902  44.777  0.00  0.00    +0.000 C 
ENDBRANCH  41  43
ENDBRANCH  27  41
ENDBRANCH  24  27
ENDBRANCH   1  23
TORSDOF 19
REMARK  Name = ../refined-set-2016/2wqp/2wqp_pocket.pdb
REMARK  267 active torsions:
REMARK  status: ('A' for Active; 'I' for Inactive)
REMARK    1  A    between atoms: _1  and  _3
REMARK    2  A    between atoms: _3  and  _4
REMARK    3  A    between atoms: _3  and  _6
REMARK    4  A    between atoms: _6  and  _7
REMARK    5  A    between atoms: _10  and  _12
REMARK    6  A    between atoms: _12  and  _13
REMARK    7  A    between atoms: _12  and  _15
REMARK    8  A    between atoms: _15  and  _16
REMARK    9  A    between atoms: _16  and  _17
REMARK   10  A    between atoms: _20  and  _22
REMARK   11  A    between atoms: _22  and  _23
REMARK   12  A    between atoms: _22  and  _25
REMARK   13  A    between atoms: _25  and  _26
REMARK   14  A    between atoms: _29  and  _31
REMARK   15  A    between atoms: _31  and  _32
REMARK   16  A    between atoms: _34  and  _36
REMARK   17  A    between atoms: _36  and  _37
REMARK   18  A    between atoms: _36  and  _39
REMARK   19  A    between atoms: _39  and  _40
REMARK   20  A    between atoms: _43  and  _45
REMARK   21  A    between atoms: _45  and  _46
REMARK   22  A    between atoms: _45  and  _48
REMARK   23  A    between atoms: _48  and  _49
REMARK   24  A    between atoms: _54  and  _56
REMARK   25  A    between atoms: _56  and  _57
REMARK   26  A    between atoms: _56  and  _59
REMARK   27  A    between atoms: _59  and  _60
REMARK   28  A    between atoms: _60  and  _61
REMARK   29  A    between atoms: _61  and  _62
REMARK   30  A    between atoms: _62  and  _63
REMARK   31  A    between atoms: _67  and  _69
REMARK   32  A    between atoms: _69  and  _70
REMARK   33  A    between atoms: _69  and  _72
REMARK   34  A    between atoms: _72  and  _73
REMARK   35  A    between atoms: _78  and  _80
REMARK   36  A    between atoms: _80  and  _81
REMARK   37  A    between atoms: _80  and  _83
REMARK   38  A    between atoms: _83  and  _84
REMARK   39  A    between atoms: _84  and  _85
REMARK   40  A    between atoms: _90  and  _92
REMARK   41  A    between atoms: _92  and  _93
REMARK   42  A    between atoms: _92  and  _95
REMARK   43  A    between atoms: _95  and  _96
REMARK   44  A    between atoms: _99  and  _101
REMARK   45  A    between atoms: _101  and  _102
REMARK   46  A    between atoms: _101  and  _104
REMARK   47  A    between atoms: _104  and  _105
REMARK   48  A    between atoms: _110  and  _112
REMARK   49  A    between atoms: _112  and  _113
REMARK   50  A    between atoms: _112  and  _115
REMARK   51  A    between atoms: _115  and  _116
REMARK   52  A    between atoms: _116  and  _117
REMARK   53  A    between atoms: _120  and  _122
REMARK   54  A    between atoms: _122  and  _123
REMARK   55  A    between atoms: _122  and  _125
REMARK   56  A    between atoms: _125  and  _126
REMARK   57  A    between atoms: _130  and  _131
REMARK   58  A    between atoms: _136  and  _138
REMARK   59  A    between atoms: _138  and  _139
REMARK   60  A    between atoms: _141  and  _143
REMARK   61  A    between atoms: _143  and  _144
REMARK   62  A    between atoms: _143  and  _146
REMARK   63  A    between atoms: _146  and  _147
REMARK   64  A    between atoms: _152  and  _154
REMARK   65  A    between atoms: _154  and  _155
REMARK   66  A    between atoms: _158  and  _160
REMARK   67  A    between atoms: _160  and  _161
REMARK   68  A    between atoms: _160  and  _163
REMARK   69  A    between atoms: _166  and  _168
REMARK   70  A    between atoms: _168  and  _169
REMARK   71  A    between atoms: _168  and  _171
REMARK   72  A    between atoms: _171  and  _172
REMARK   73  A    between atoms: _174  and  _176
REMARK   74  A    between atoms: _176  and  _177
REMARK   75  A    between atoms: _176  and  _179
REMARK   76  A    between atoms: _179  and  _180
REMARK   77  A    between atoms: _183  and  _185
REMARK   78  A    between atoms: _185  and  _186
REMARK   79  A    between atoms: _185  and  _188
REMARK   80  A    between atoms: _188  and  _189
REMARK   81  A    between atoms: _192  and  _194
REMARK   82  A    between atoms: _194  and  _195
REMARK   83  A    between atoms: _194  and  _197
REMARK   84  A    between atoms: _197  and  _198
REMARK   85  A    between atoms: _198  and  _199
REMARK   86  A    between atoms: _201  and  _203
REMARK   87  A    between atoms: _203  and  _204
REMARK   88  A    between atoms: _203  and  _206
REMARK   89  A    between atoms: _206  and  _207
REMARK   90  A    between atoms: _207  and  _208
REMARK   91  A    between atoms: _208  and  _209
REMARK   92  A    between atoms: _218  and  _220
REMARK   93  A    between atoms: _220  and  _221
REMARK   94  A    between atoms: _220  and  _223
REMARK   95  A    between atoms: _225  and  _227
REMARK   96  A    between atoms: _227  and  _228
REMARK   97  A    between atoms: _227  and  _230
REMARK   98  A    between atoms: _230  and  _231
REMARK   99  A    between atoms: _233  and  _235
REMARK  100  A    between atoms: _235  and  _236
REMARK  101  A    between atoms: _235  and  _238
REMARK  102  A    between atoms: _238  and  _239
REMARK  103  A    between atoms: _242  and  _244
REMARK  104  A    between atoms: _244  and  _245
REMARK  105  A    between atoms: _244  and  _247
REMARK  106  A    between atoms: _247  and  _248
REMARK  107  A    between atoms: _251  and  _253
REMARK  108  A    between atoms: _253  and  _254
REMARK  109  A    between atoms: _253  and  _256
REMARK  110  A    between atoms: _256  and  _257
REMARK  111  A    between atoms: _263  and  _265
REMARK  112  A    between atoms: _265  and  _266
REMARK  113  A    between atoms: _265  and  _268
REMARK  114  A    between atoms: _268  and  _269
REMARK  115  A    between atoms: _269  and  _270
REMARK  116  A    between atoms: _270  and  _271
REMARK  117  A    between atoms: _271  and  _272
REMARK  118  A    between atoms: _276  and  _278
REMARK  119  A    between atoms: _278  and  _279
REMARK  120  A    between atoms: _278  and  _281
REMARK  121  A    between atoms: _281  and  _282
REMARK  122  A    between atoms: _285  and  _287
REMARK  123  A    between atoms: _287  and  _288
REMARK  124  A    between atoms: _290  and  _292
REMARK  125  A    between atoms: _292  and  _293
REMARK  126  A    between atoms: _292  and  _295
REMARK  127  A    between atoms: _295  and  _296
REMARK  128  A    between atoms: _298  and  _300
REMARK  129  A    between atoms: _300  and  _301
REMARK  130  A    between atoms: _303  and  _305
REMARK  131  A    between atoms: _305  and  _306
REMARK  132  A    between atoms: _305  and  _308
REMARK  133  A    between atoms: _308  and  _309
REMARK  134  A    between atoms: _309  and  _310
REMARK  135  A    between atoms: _313  and  _315
REMARK  136  A    between atoms: _315  and  _316
REMARK  137  A    between atoms: _315  and  _318
REMARK  138  A    between atoms: _320  and  _322
REMARK  139  A    between atoms: _322  and  _323
REMARK  140  A    between atoms: _322  and  _325
REMARK  141  A    between atoms: _325  and  _326
REMARK  142  A    between atoms: _329  and  _331
REMARK  143  A    between atoms: _331  and  _332
REMARK  144  A    between atoms: _331  and  _334
REMARK  145  A    between atoms: _334  and  _335
REMARK  146  A    between atoms: _338  and  _340
REMARK  147  A    between atoms: _340  and  _341
REMARK  148  A    between atoms: _340  and  _343
REMARK  149  A    between atoms: _343  and  _344
REMARK  150  A    between atoms: _346  and  _348
REMARK  151  A    between atoms: _348  and  _349
REMARK  152  A    between atoms: _348  and  _351
REMARK  153  A    between atoms: _351  and  _352
REMARK  154  A    between atoms: _355  and  _357
REMARK  155  A    between atoms: _357  and  _358
REMARK  156  A    between atoms: _360  and  _362
REMARK  157  A    between atoms: _362  and  _363
REMARK  158  A    between atoms: _362  and  _365
REMARK  159  A    between atoms: _365  and  _366
REMARK  160  A    between atoms: _366  and  _367
REMARK  161  A    between atoms: _369  and  _371
REMARK  162  A    between atoms: _371  and  _372
REMARK  163  A    between atoms: _371  and  _374
REMARK  164  A    between atoms: _374  and  _375
REMARK  165  A    between atoms: _380  and  _382
REMARK  166  A    between atoms: _382  and  _383
REMARK  167  A    between atoms: _382  and  _385
REMARK  168  A    between atoms: _385  and  _386
REMARK  169  A    between atoms: _389  and  _391
REMARK  170  A    between atoms: _391  and  _392
REMARK  171  A    between atoms: _391  and  _394
REMARK  172  A    between atoms: _394  and  _395
REMARK  173  A    between atoms: _400  and  _402
REMARK  174  A    between atoms: _402  and  _403
REMARK  175  A    between atoms: _402  and  _405
REMARK  176  A    between atoms: _407  and  _409
REMARK  177  A    between atoms: _409  and  _410
REMARK  178  A    between atoms: _409  and  _412
REMARK  179  A    between atoms: _412  and  _413
REMARK  180  A    between atoms: _416  and  _418
REMARK  181  A    between atoms: _418  and  _419
REMARK  182  A    between atoms: _418  and  _421
REMARK  183  A    between atoms: _421  and  _422
REMARK  184  A    between atoms: _427  and  _429
REMARK  185  A    between atoms: _429  and  _430
REMARK  186  A    between atoms: _429  and  _432
REMARK  187  A    between atoms: _432  and  _433
REMARK  188  A    between atoms: _436  and  _438
REMARK  189  A    between atoms: _438  and  _439
REMARK  190  A    between atoms: _438  and  _441
REMARK  191  A    between atoms: _441  and  _442
REMARK  192  A    between atoms: _447  and  _448
REMARK  193  A    between atoms: _450  and  _452
REMARK  194  A    between atoms: _452  and  _453
REMARK  195  A    between atoms: _452  and  _455
REMARK  196  A    between atoms: _455  and  _456
REMARK  197  A    between atoms: _459  and  _461
REMARK  198  A    between atoms: _461  and  _462
REMARK  199  A    between atoms: _461  and  _464
REMARK  200  A    between atoms: _464  and  _465
REMARK  201  A    between atoms: _467  and  _469
REMARK  202  A    between atoms: _469  and  _470
REMARK  203  A    between atoms: _469  and  _472
REMARK  204  A    between atoms: _472  and  _473
REMARK  205  A    between atoms: _476  and  _478
REMARK  206  A    between atoms: _478  and  _479
REMARK  207  A    between atoms: _478  and  _481
REMARK  208  A    between atoms: _481  and  _482
REMARK  209  A    between atoms: _486  and  MN_638
REMARK  210  A    between atoms: _487  and  _489
REMARK  211  A    between atoms: _489  and  _490
REMARK  212  A    between atoms: _489  and  _492
REMARK  213  A    between atoms: _492  and  _493
REMARK  214  A    between atoms: _493  and  _494
REMARK  215  A    between atoms: _497  and  _499
REMARK  216  A    between atoms: _499  and  _500
REMARK  217  A    between atoms: _499  and  _502
REMARK  218  A    between atoms: _502  and  _503
REMARK  219  A    between atoms: _503  and  _504
REMARK  220  A    between atoms: _504  and  _505
REMARK  221  A    between atoms: _514  and  _516
REMARK  222  A    between atoms: _516  and  _517
REMARK  223  A    between atoms: _516  and  _519
REMARK  224  A    between atoms: _519  and  _520
REMARK  225  A    between atoms: _524  and  MN_638
REMARK  226  A    between atoms: _525  and  _527
REMARK  227  A    between atoms: _527  and  _528
REMARK  228  A    between atoms: _531  and  _532
REMARK  229  A    between atoms: _537  and  _539
REMARK  230  A    between atoms: _539  and  _540
REMARK  231  A    between atoms: _539  and  _542
REMARK  232  A    between atoms: _542  and  _543
REMARK  233  A    between atoms: _546  and  _548
REMARK  234  A    between atoms: _548  and  _549
REMARK  235  A    between atoms: _548  and  _551
REMARK  236  A    between atoms: _551  and  _552
REMARK  237  A    between atoms: _555  and  _557
REMARK  238  A    between atoms: _557  and  _558
REMARK  239  A    between atoms: _557  and  _560
REMARK  240  A    between atoms: _563  and  _564
REMARK  241  A    between atoms: _569  and  _571
REMARK  242  A    between atoms: _571  and  _572
REMARK  243  A    between atoms: _571  and  _574
REMARK  244  A    between atoms: _574  and  _575
REMARK  245  A    between atoms: _578  and  _580
REMARK  246  A    between atoms: _580  and  _581
REMARK  247  A    between atoms: _580  and  _583
REMARK  248  A    between atoms: _583  and  _584
REMARK  249  A    between atoms: _584  and  _585
REMARK  250  A    between atoms: _585  and  _586
REMARK  251  A    between atoms: _586  and  _587
REMARK  252  A    between atoms: _591  and  _593
REMARK  253  A    between atoms: _593  and  _594
REMARK  254  A    between atoms: _593  and  _596
REMARK  255  A    between atoms: _596  and  _597
REMARK  256  A    between atoms: _603  and  _605
REMARK  257  A    between atoms: _605  and  _606
REMARK  258  A    between atoms: _609  and  _611
REMARK  259  A    between atoms: _611  and  _612
REMARK  260  A    between atoms: _611  and  _614
REMARK  261  A    between atoms: _614  and  _615
REMARK  262  A    between atoms: _621  and  _623
REMARK  263  A    between atoms: _623  and  _624
REMARK  264  A    between atoms: _623  and  _626
REMARK  265  A    between atoms: _626  and  _627
REMARK  266  A    between atoms: _627  and  _628
REMARK  267  A    between atoms: _628  and  _629
REMARK                            x       y       z     vdW  Elec       q    Type
REMARK                         _______ _______ _______ _____ _____    ______ ____
ROOT
ATOM      1  CA  GLN A   3     103.956 -23.090  49.063  0.00  0.00    +0.149 C 
ENDROOT
BRANCH   1   4
ATOM      2  C   HIS A   2     104.655 -20.815  48.471  0.00  0.00    +0.241 C 
ATOM      3  O   HIS A   2     104.421 -20.351  49.584  0.00  0.00    -0.273 OA
ATOM      4  N   GLN A   3     104.309 -22.041  48.098  0.00  0.00    -0.297 N 
ATOM      5  H   GLN A   3     104.287 -22.267  47.083  0.00  0.00    +0.150 HD
BRANCH   2   6
ATOM      6  CA  HIS A   2     105.332 -19.947  47.415  0.00  0.00    +0.155 C 
BRANCH   6   8
ATOM      7  C   LYS A   1     104.832 -17.573  47.614  0.00  0.00    +0.238 C 
ATOM      8  N   HIS A   2     105.528 -18.634  47.993  0.00  0.00    -0.297 N 
ATOM      9  H   HIS A   2     106.246 -18.519  48.737  0.00  0.00    +0.150 HD
ATOM     10  O   LYS A   1     104.004 -17.602  46.713  0.00  0.00    -0.274 OA
BRANCH   7  11
ATOM     11  CA  LYS A   1     105.157 -16.275  48.332  0.00  0.00    +0.145 C 
BRANCH  11  12
ATOM     12  N   LYS A   1     105.150 -15.162  47.399  0.00  0.00    -0.238 NA
ATOM     13  H   LYS A   1     104.245 -14.827  47.012  0.00  0.00    +0.142 HD
ENDBRANCH  11  12
BRANCH  11  14
ATOM     14  CB  LYS A   1     104.154 -16.061  49.458  0.00  0.00    +0.026 C 
BRANCH  14  15
ATOM     15  CG  LYS A   1     104.265 -17.083  50.579  0.00  0.00    -0.000 C 
BRANCH  15  16
ATOM     16  CD  LYS A   1     103.159 -16.937  51.606  0.00  0.00    -0.024 C 
BRANCH  16  17
ATOM     17  CE  LYS A   1     101.853 -17.505  51.120  0.00  0.00    -0.086 C 
BRANCH  17  18
ATOM     18  NZ  LYS A   1     101.973 -18.966  50.901  0.00  0.00    +0.380 N 
ATOM     19  HZ1 LYS A   1     102.232 -19.429  51.795  0.00  0.00    -0.089 HD
ATOM     20  HZ2 LYS A   1     101.063 -19.341  50.566  0.00  0.00    -0.089 HD
ATOM     21  HZ3 LYS A   1     102.708 -19.149  50.189  0.00  0.00    -0.089 HD
ENDBRANCH  17  18
ENDBRANCH  16  17
ENDBRANCH  15  16
ENDBRANCH  14  15
ENDBRANCH  11  14
ENDBRANCH   7  11
ENDBRANCH   6   8
BRANCH   6  22
ATOM     22  CB  HIS A   2     106.700 -20.530  47.045  0.00  0.00    +0.076 C 
BRANCH  22  23
ATOM     23  CG  HIS A   2     106.627 -21.782  46.225  0.00  0.00    +0.082 A 
ATOM     24  ND1 HIS A   2     107.439 -22.870  46.446  0.00  0.00    -0.227 NA
ATOM     25  CE1 HIS A   2     107.159 -23.811  45.561  0.00  0.00    +0.199 A 
ATOM     26  NE2 HIS A   2     106.179 -23.380  44.788  0.00  0.00    -0.221 NA
ATOM     27  CD2 HIS A   2     105.826 -22.115  45.186  0.00  0.00    +0.115 A 
ENDBRANCH  22  23
ENDBRANCH   6  22
ENDBRANCH   2   6
ENDBRANCH   1   4
BRANCH   1  28
ATOM     28  C   GLN A   3     104.935 -24.241  48.914  0.00  0.00    +0.241 C 
ATOM     29  N   THR A   4     105.513 -24.685  50.024  0.00  0.00    -0.295 N 
ATOM     30  H   THR A   4     105.227 -24.292  50.943  0.00  0.00    +0.150 HD
ATOM     31  O   GLN A   3     105.182 -24.716  47.810  0.00  0.00    -0.273 OA
BRANCH  29  32
ATOM     32  CA  THR A   4     106.541 -25.714  49.973  0.00  0.00    +0.176 C 
BRANCH  32  33
ATOM     33  C   THR A   4     105.919 -27.040  50.372  0.00  0.00    +0.243 C 
ATOM     34  O   THR A   4     105.710 -27.314  51.541  0.00  0.00    -0.273 OA
ATOM     35  N   HIS A   5     105.627 -27.862  49.373  0.00  0.00    -0.298 N 
ATOM     36  H   HIS A   5     105.905 -27.600  48.406  0.00  0.00    +0.150 HD
BRANCH  35  37
ATOM     37  CA  HIS A   5     104.934 -29.112  49.589  0.00  0.00    +0.143 C 
BRANCH  37  38
ATOM     38  C   HIS A   5     105.861 -30.280  49.354  0.00  0.00    +0.227 C 
ATOM     39  O   HIS A   5     106.502 -30.383  48.308  0.00  0.00    -0.286 OA
ENDBRANCH  37  38
BRANCH  37  40
ATOM     40  CB  HIS A   5     103.742 -29.224  48.650  0.00  0.00    +0.075 C 
BRANCH  40  41
ATOM     41  CG  HIS A   5     102.627 -28.289  48.983  0.00  0.00    +0.082 A 
ATOM     42  ND1 HIS A   5     101.755 -28.526  50.022  0.00  0.00    -0.227 NA
ATOM     43  CE1 HIS A   5     100.871 -27.543  50.077  0.00  0.00    +0.199 A 
ATOM     44  NE2 HIS A   5     101.126 -26.691  49.100  0.00  0.00    -0.221 NA
ATOM     45  CD2 HIS A   5     102.234 -27.128  48.411  0.00  0.00    +0.115 A 
ENDBRANCH  40  41
ENDBRANCH  37  40
ENDBRANCH  35  37
ENDBRANCH  32  33
BRANCH  32  46
ATOM     46  CB  THR A   4     107.713 -25.385  50.906  0.00  0.00    +0.137 C 
ATOM     47  CG2 THR A   4     108.792 -26.481  50.830  0.00  0.00    +0.034 C 
BRANCH  46  48
ATOM     48  OG1 THR A   4     108.287 -24.126  50.538  0.00  0.00    -0.382 OA
ATOM     49  HG1 THR A   4     108.614 -24.174  49.605  0.00  0.00    +0.210 HD
ENDBRANCH  46  48
ENDBRANCH  32  46
ENDBRANCH  29  32
ENDBRANCH   1  28
BRANCH   1  50
ATOM     50  CB  GLN A   3     102.528 -23.585  48.836  0.00  0.00    +0.039 C 
BRANCH  50  51
ATOM     51  CG  GLN A   3     101.485 -22.615  49.279  0.00  0.00    +0.087 C 
BRANCH  51  52
ATOM     52  CD  GLN A   3     100.090 -23.089  48.991  0.00  0.00    +0.219 C 
ATOM     53  NE2 GLN A   3      99.167 -22.151  48.877  0.00  0.00    -0.329 N 
ATOM     54 HE21 GLN A   3      99.426 -21.150  48.988  0.00  0.00    +0.145 HD
ATOM     55 HE22 GLN A   3      98.181 -22.413  48.676  0.00  0.00    +0.145 HD
ATOM     56  OE1 GLN A   3      99.839 -24.289  48.869  0.00  0.00    -0.275 OA
ENDBRANCH  51  52
ENDBRANCH  50  51
ENDBRANCH   1  50
TORSDOF 24
REMARK  Name = ../refined-set-2016/2wqp/2wqp_pocket.pdb
REMARK  267 active torsions:
REMARK  status: ('A' for Active; 'I' for Inactive)
REMARK    1  A    between atoms: _1  and  _3
REMARK    2  A    between atoms: _3  and  _4
REMARK    3  A    between atoms: _3  and  _6
REMARK    4  A    between atoms: _6  and  _7
REMARK    5  A    between atoms: _10  and  _12
REMARK    6  A    between atoms: _12  and  _13
REMARK    7  A    between atoms: _12  and  _15
REMARK    8  A    between atoms: _15  and  _16
REMARK    9  A    between atoms: _16  and  _17
REMARK   10  A    between atoms: _20  and  _22
REMARK   11  A    between atoms: _22  and  _23
REMARK   12  A    between atoms: _22  and  _25
REMARK   13  A    between atoms: _25  and  _26
REMARK   14  A    between atoms: _29  and  _31
REMARK   15  A    between atoms: _31  and  _32
REMARK   16  A    between atoms: _34  and  _36
REMARK   17  A    between atoms: _36  and  _37
REMARK   18  A    between atoms: _36  and  _39
REMARK   19  A    between atoms: _39  and  _40
REMARK   20  A    between atoms: _43  and  _45
REMARK   21  A    between atoms: _45  and  _46
REMARK   22  A    between atoms: _45  and  _48
REMARK   23  A    between atoms: _48  and  _49
REMARK   24  A    between atoms: _54  and  _56
REMARK   25  A    between atoms: _56  and  _57
REMARK   26  A    between atoms: _56  and  _59
REMARK   27  A    between atoms: _59  and  _60
REMARK   28  A    between atoms: _60  and  _61
REMARK   29  A    between atoms: _61  and  _62
REMARK   30  A    between atoms: _62  and  _63
REMARK   31  A    between atoms: _67  and  _69
REMARK   32  A    between atoms: _69  and  _70
REMARK   33  A    between atoms: _69  and  _72
REMARK   34  A    between atoms: _72  and  _73
REMARK   35  A    between atoms: _78  and  _80
REMARK   36  A    between atoms: _80  and  _81
REMARK   37  A    between atoms: _80  and  _83
REMARK   38  A    between atoms: _83  and  _84
REMARK   39  A    between atoms: _84  and  _85
REMARK   40  A    between atoms: _90  and  _92
REMARK   41  A    between atoms: _92  and  _93
REMARK   42  A    between atoms: _92  and  _95
REMARK   43  A    between atoms: _95  and  _96
REMARK   44  A    between atoms: _99  and  _101
REMARK   45  A    between atoms: _101  and  _102
REMARK   46  A    between atoms: _101  and  _104
REMARK   47  A    between atoms: _104  and  _105
REMARK   48  A    between atoms: _110  and  _112
REMARK   49  A    between atoms: _112  and  _113
REMARK   50  A    between atoms: _112  and  _115
REMARK   51  A    between atoms: _115  and  _116
REMARK   52  A    between atoms: _116  and  _117
REMARK   53  A    between atoms: _120  and  _122
REMARK   54  A    between atoms: _122  and  _123
REMARK   55  A    between atoms: _122  and  _125
REMARK   56  A    between atoms: _125  and  _126
REMARK   57  A    between atoms: _130  and  _131
REMARK   58  A    between atoms: _136  and  _138
REMARK   59  A    between atoms: _138  and  _139
REMARK   60  A    between atoms: _141  and  _143
REMARK   61  A    between atoms: _143  and  _144
REMARK   62  A    between atoms: _143  and  _146
REMARK   63  A    between atoms: _146  and  _147
REMARK   64  A    between atoms: _152  and  _154
REMARK   65  A    between atoms: _154  and  _155
REMARK   66  A    between atoms: _158  and  _160
REMARK   67  A    between atoms: _160  and  _161
REMARK   68  A    between atoms: _160  and  _163
REMARK   69  A    between atoms: _166  and  _168
REMARK   70  A    between atoms: _168  and  _169
REMARK   71  A    between atoms: _168  and  _171
REMARK   72  A    between atoms: _171  and  _172
REMARK   73  A    between atoms: _174  and  _176
REMARK   74  A    between atoms: _176  and  _177
REMARK   75  A    between atoms: _176  and  _179
REMARK   76  A    between atoms: _179  and  _180
REMARK   77  A    between atoms: _183  and  _185
REMARK   78  A    between atoms: _185  and  _186
REMARK   79  A    between atoms: _185  and  _188
REMARK   80  A    between atoms: _188  and  _189
REMARK   81  A    between atoms: _192  and  _194
REMARK   82  A    between atoms: _194  and  _195
REMARK   83  A    between atoms: _194  and  _197
REMARK   84  A    between atoms: _197  and  _198
REMARK   85  A    between atoms: _198  and  _199
REMARK   86  A    between atoms: _201  and  _203
REMARK   87  A    between atoms: _203  and  _204
REMARK   88  A    between atoms: _203  and  _206
REMARK   89  A    between atoms: _206  and  _207
REMARK   90  A    between atoms: _207  and  _208
REMARK   91  A    between atoms: _208  and  _209
REMARK   92  A    between atoms: _218  and  _220
REMARK   93  A    between atoms: _220  and  _221
REMARK   94  A    between atoms: _220  and  _223
REMARK   95  A    between atoms: _225  and  _227
REMARK   96  A    between atoms: _227  and  _228
REMARK   97  A    between atoms: _227  and  _230
REMARK   98  A    between atoms: _230  and  _231
REMARK   99  A    between atoms: _233  and  _235
REMARK  100  A    between atoms: _235  and  _236
REMARK  101  A    between atoms: _235  and  _238
REMARK  102  A    between atoms: _238  and  _239
REMARK  103  A    between atoms: _242  and  _244
REMARK  104  A    between atoms: _244  and  _245
REMARK  105  A    between atoms: _244  and  _247
REMARK  106  A    between atoms: _247  and  _248
REMARK  107  A    between atoms: _251  and  _253
REMARK  108  A    between atoms: _253  and  _254
REMARK  109  A    between atoms: _253  and  _256
REMARK  110  A    between atoms: _256  and  _257
REMARK  111  A    between atoms: _263  and  _265
REMARK  112  A    between atoms: _265  and  _266
REMARK  113  A    between atoms: _265  and  _268
REMARK  114  A    between atoms: _268  and  _269
REMARK  115  A    between atoms: _269  and  _270
REMARK  116  A    between atoms: _270  and  _271
REMARK  117  A    between atoms: _271  and  _272
REMARK  118  A    between atoms: _276  and  _278
REMARK  119  A    between atoms: _278  and  _279
REMARK  120  A    between atoms: _278  and  _281
REMARK  121  A    between atoms: _281  and  _282
REMARK  122  A    between atoms: _285  and  _287
REMARK  123  A    between atoms: _287  and  _288
REMARK  124  A    between atoms: _290  and  _292
REMARK  125  A    between atoms: _292  and  _293
REMARK  126  A    between atoms: _292  and  _295
REMARK  127  A    between atoms: _295  and  _296
REMARK  128  A    between atoms: _298  and  _300
REMARK  129  A    between atoms: _300  and  _301
REMARK  130  A    between atoms: _303  and  _305
REMARK  131  A    between atoms: _305  and  _306
REMARK  132  A    between atoms: _305  and  _308
REMARK  133  A    between atoms: _308  and  _309
REMARK  134  A    between atoms: _309  and  _310
REMARK  135  A    between atoms: _313  and  _315
REMARK  136  A    between atoms: _315  and  _316
REMARK  137  A    between atoms: _315  and  _318
REMARK  138  A    between atoms: _320  and  _322
REMARK  139  A    between atoms: _322  and  _323
REMARK  140  A    between atoms: _322  and  _325
REMARK  141  A    between atoms: _325  and  _326
REMARK  142  A    between atoms: _329  and  _331
REMARK  143  A    between atoms: _331  and  _332
REMARK  144  A    between atoms: _331  and  _334
REMARK  145  A    between atoms: _334  and  _335
REMARK  146  A    between atoms: _338  and  _340
REMARK  147  A    between atoms: _340  and  _341
REMARK  148  A    between atoms: _340  and  _343
REMARK  149  A    between atoms: _343  and  _344
REMARK  150  A    between atoms: _346  and  _348
REMARK  151  A    between atoms: _348  and  _349
REMARK  152  A    between atoms: _348  and  _351
REMARK  153  A    between atoms: _351  and  _352
REMARK  154  A    between atoms: _355  and  _357
REMARK  155  A    between atoms: _357  and  _358
REMARK  156  A    between atoms: _360  and  _362
REMARK  157  A    between atoms: _362  and  _363
REMARK  158  A    between atoms: _362  and  _365
REMARK  159  A    between atoms: _365  and  _366
REMARK  160  A    between atoms: _366  and  _367
REMARK  161  A    between atoms: _369  and  _371
REMARK  162  A    between atoms: _371  and  _372
REMARK  163  A    between atoms: _371  and  _374
REMARK  164  A    between atoms: _374  and  _375
REMARK  165  A    between atoms: _380  and  _382
REMARK  166  A    between atoms: _382  and  _383
REMARK  167  A    between atoms: _382  and  _385
REMARK  168  A    between atoms: _385  and  _386
REMARK  169  A    between atoms: _389  and  _391
REMARK  170  A    between atoms: _391  and  _392
REMARK  171  A    between atoms: _391  and  _394
REMARK  172  A    between atoms: _394  and  _395
REMARK  173  A    between atoms: _400  and  _402
REMARK  174  A    between atoms: _402  and  _403
REMARK  175  A    between atoms: _402  and  _405
REMARK  176  A    between atoms: _407  and  _409
REMARK  177  A    between atoms: _409  and  _410
REMARK  178  A    between atoms: _409  and  _412
REMARK  179  A    between atoms: _412  and  _413
REMARK  180  A    between atoms: _416  and  _418
REMARK  181  A    between atoms: _418  and  _419
REMARK  182  A    between atoms: _418  and  _421
REMARK  183  A    between atoms: _421  and  _422
REMARK  184  A    between atoms: _427  and  _429
REMARK  185  A    between atoms: _429  and  _430
REMARK  186  A    between atoms: _429  and  _432
REMARK  187  A    between atoms: _432  and  _433
REMARK  188  A    between atoms: _436  and  _438
REMARK  189  A    between atoms: _438  and  _439
REMARK  190  A    between atoms: _438  and  _441
REMARK  191  A    between atoms: _441  and  _442
REMARK  192  A    between atoms: _447  and  _448
REMARK  193  A    between atoms: _450  and  _452
REMARK  194  A    between atoms: _452  and  _453
REMARK  195  A    between atoms: _452  and  _455
REMARK  196  A    between atoms: _455  and  _456
REMARK  197  A    between atoms: _459  and  _461
REMARK  198  A    between atoms: _461  and  _462
REMARK  199  A    between atoms: _461  and  _464
REMARK  200  A    between atoms: _464  and  _465
REMARK  201  A    between atoms: _467  and  _469
REMARK  202  A    between atoms: _469  and  _470
REMARK  203  A    between atoms: _469  and  _472
REMARK  204  A    between atoms: _472  and  _473
REMARK  205  A    between atoms: _476  and  _478
REMARK  206  A    between atoms: _478  and  _479
REMARK  207  A    between atoms: _478  and  _481
REMARK  208  A    between atoms: _481  and  _482
REMARK  209  A    between atoms: _486  and  MN_638
REMARK  210  A    between atoms: _487  and  _489
REMARK  211  A    between atoms: _489  and  _490
REMARK  212  A    between atoms: _489  and  _492
REMARK  213  A    between atoms: _492  and  _493
REMARK  214  A    between atoms: _493  and  _494
REMARK  215  A    between atoms: _497  and  _499
REMARK  216  A    between atoms: _499  and  _500
REMARK  217  A    between atoms: _499  and  _502
REMARK  218  A    between atoms: _502  and  _503
REMARK  219  A    between atoms: _503  and  _504
REMARK  220  A    between atoms: _504  and  _505
REMARK  221  A    between atoms: _514  and  _516
REMARK  222  A    between atoms: _516  and  _517
REMARK  223  A    between atoms: _516  and  _519
REMARK  224  A    between atoms: _519  and  _520
REMARK  225  A    between atoms: _524  and  MN_638
REMARK  226  A    between atoms: _525  and  _527
REMARK  227  A    between atoms: _527  and  _528
REMARK  228  A    between atoms: _531  and  _532
REMARK  229  A    between atoms: _537  and  _539
REMARK  230  A    between atoms: _539  and  _540
REMARK  231  A    between atoms: _539  and  _542
REMARK  232  A    between atoms: _542  and  _543
REMARK  233  A    between atoms: _546  and  _548
REMARK  234  A    between atoms: _548  and  _549
REMARK  235  A    between atoms: _548  and  _551
REMARK  236  A    between atoms: _551  and  _552
REMARK  237  A    between atoms: _555  and  _557
REMARK  238  A    between atoms: _557  and  _558
REMARK  239  A    between atoms: _557  and  _560
REMARK  240  A    between atoms: _563  and  _564
REMARK  241  A    between atoms: _569  and  _571
REMARK  242  A    between atoms: _571  and  _572
REMARK  243  A    between atoms: _571  and  _574
REMARK  244  A    between atoms: _574  and  _575
REMARK  245  A    between atoms: _578  and  _580
REMARK  246  A    between atoms: _580  and  _581
REMARK  247  A    between atoms: _580  and  _583
REMARK  248  A    between atoms: _583  and  _584
REMARK  249  A    between atoms: _584  and  _585
REMARK  250  A    between atoms: _585  and  _586
REMARK  251  A    between atoms: _586  and  _587
REMARK  252  A    between atoms: _591  and  _593
REMARK  253  A    between atoms: _593  and  _594
REMARK  254  A    between atoms: _593  and  _596
REMARK  255  A    between atoms: _596  and  _597
REMARK  256  A    between atoms: _603  and  _605
REMARK  257  A    between atoms: _605  and  _606
REMARK  258  A    between atoms: _609  and  _611
REMARK  259  A    between atoms: _611  and  _612
REMARK  260  A    between atoms: _611  and  _614
REMARK  261  A    between atoms: _614  and  _615
REMARK  262  A    between atoms: _621  and  _623
REMARK  263  A    between atoms: _623  and  _624
REMARK  264  A    between atoms: _623  and  _626
REMARK  265  A    between atoms: _626  and  _627
REMARK  266  A    between atoms: _627  and  _628
REMARK  267  A    between atoms: _628  and  _629
REMARK                            x       y       z     vdW  Elec       q    Type
REMARK                         _______ _______ _______ _____ _____    ______ ____
ROOT
ATOM      1  CA  GLU A   1     103.083 -33.417  55.160  0.00  0.00    +0.134 C 
ENDROOT
BRANCH   1   2
ATOM      2  N   GLU A   1     104.191 -34.254  54.716  0.00  0.00    -0.239 NA
ATOM      3  H   GLU A   1     104.334 -34.442  53.703  0.00  0.00    +0.142 HD
ENDBRANCH   1   2
BRANCH   1   4
ATOM      4  C   GLU A   1     101.771 -34.181  55.298  0.00  0.00    +0.224 C 
ATOM      5  O   GLU A   1     100.847 -33.710  55.966  0.00  0.00    -0.287 OA
ENDBRANCH   1   4
BRANCH   1   6
ATOM      6  CB  GLU A   1     102.920 -32.207  54.245  0.00  0.00    +0.037 C 
BRANCH   6   7
ATOM      7  CG  GLU A   1     102.239 -32.450  52.948  0.00  0.00    +0.116 C 
BRANCH   7   8
ATOM      8  CD  GLU A   1     102.318 -31.216  52.047  0.00  0.00    +0.365 C 
ATOM      9  OE2 GLU A   1     103.408 -30.617  51.953  0.00  0.00    -0.246 OA
ATOM     10  OE1 GLU A   1     101.284 -30.846  51.459  0.00  0.00    -0.246 OA
ENDBRANCH   7   8
ENDBRANCH   6   7
ENDBRANCH   1   6
TORSDOF 5
REMARK  Name = ../refined-set-2016/2wqp/2wqp_pocket.pdb
REMARK  267 active torsions:
REMARK  status: ('A' for Active; 'I' for Inactive)
REMARK    1  A    between atoms: _1  and  _3
REMARK    2  A    between atoms: _3  and  _4
REMARK    3  A    between atoms: _3  and  _6
REMARK    4  A    between atoms: _6  and  _7
REMARK    5  A    between atoms: _10  and  _12
REMARK    6  A    between atoms: _12  and  _13
REMARK    7  A    between atoms: _12  and  _15
REMARK    8  A    between atoms: _15  and  _16
REMARK    9  A    between atoms: _16  and  _17
REMARK   10  A    between atoms: _20  and  _22
REMARK   11  A    between atoms: _22  and  _23
REMARK   12  A    between atoms: _22  and  _25
REMARK   13  A    between atoms: _25  and  _26
REMARK   14  A    between atoms: _29  and  _31
REMARK   15  A    between atoms: _31  and  _32
REMARK   16  A    between atoms: _34  and  _36
REMARK   17  A    between atoms: _36  and  _37
REMARK   18  A    between atoms: _36  and  _39
REMARK   19  A    between atoms: _39  and  _40
REMARK   20  A    between atoms: _43  and  _45
REMARK   21  A    between atoms: _45  and  _46
REMARK   22  A    between atoms: _45  and  _48
REMARK   23  A    between atoms: _48  and  _49
REMARK   24  A    between atoms: _54  and  _56
REMARK   25  A    between atoms: _56  and  _57
REMARK   26  A    between atoms: _56  and  _59
REMARK   27  A    between atoms: _59  and  _60
REMARK   28  A    between atoms: _60  and  _61
REMARK   29  A    between atoms: _61  and  _62
REMARK   30  A    between atoms: _62  and  _63
REMARK   31  A    between atoms: _67  and  _69
REMARK   32  A    between atoms: _69  and  _70
REMARK   33  A    between atoms: _69  and  _72
REMARK   34  A    between atoms: _72  and  _73
REMARK   35  A    between atoms: _78  and  _80
REMARK   36  A    between atoms: _80  and  _81
REMARK   37  A    between atoms: _80  and  _83
REMARK   38  A    between atoms: _83  and  _84
REMARK   39  A    between atoms: _84  and  _85
REMARK   40  A    between atoms: _90  and  _92
REMARK   41  A    between atoms: _92  and  _93
REMARK   42  A    between atoms: _92  and  _95
REMARK   43  A    between atoms: _95  and  _96
REMARK   44  A    between atoms: _99  and  _101
REMARK   45  A    between atoms: _101  and  _102
REMARK   46  A    between atoms: _101  and  _104
REMARK   47  A    between atoms: _104  and  _105
REMARK   48  A    between atoms: _110  and  _112
REMARK   49  A    between atoms: _112  and  _113
REMARK   50  A    between atoms: _112  and  _115
REMARK   51  A    between atoms: _115  and  _116
REMARK   52  A    between atoms: _116  and  _117
REMARK   53  A    between atoms: _120  and  _122
REMARK   54  A    between atoms: _122  and  _123
REMARK   55  A    between atoms: _122  and  _125
REMARK   56  A    between atoms: _125  and  _126
REMARK   57  A    between atoms: _130  and  _131
REMARK   58  A    between atoms: _136  and  _138
REMARK   59  A    between atoms: _138  and  _139
REMARK   60  A    between atoms: _141  and  _143
REMARK   61  A    between atoms: _143  and  _144
REMARK   62  A    between atoms: _143  and  _146
REMARK   63  A    between atoms: _146  and  _147
REMARK   64  A    between atoms: _152  and  _154
REMARK   65  A    between atoms: _154  and  _155
REMARK   66  A    between atoms: _158  and  _160
REMARK   67  A    between atoms: _160  and  _161
REMARK   68  A    between atoms: _160  and  _163
REMARK   69  A    between atoms: _166  and  _168
REMARK   70  A    between atoms: _168  and  _169
REMARK   71  A    between atoms: _168  and  _171
REMARK   72  A    between atoms: _171  and  _172
REMARK   73  A    between atoms: _174  and  _176
REMARK   74  A    between atoms: _176  and  _177
REMARK   75  A    between atoms: _176  and  _179
REMARK   76  A    between atoms: _179  and  _180
REMARK   77  A    between atoms: _183  and  _185
REMARK   78  A    between atoms: _185  and  _186
REMARK   79  A    between atoms: _185  and  _188
REMARK   80  A    between atoms: _188  and  _189
REMARK   81  A    between atoms: _192  and  _194
REMARK   82  A    between atoms: _194  and  _195
REMARK   83  A    between atoms: _194  and  _197
REMARK   84  A    between atoms: _197  and  _198
REMARK   85  A    between atoms: _198  and  _199
REMARK   86  A    between atoms: _201  and  _203
REMARK   87  A    between atoms: _203  and  _204
REMARK   88  A    between atoms: _203  and  _206
REMARK   89  A    between atoms: _206  and  _207
REMARK   90  A    between atoms: _207  and  _208
REMARK   91  A    between atoms: _208  and  _209
REMARK   92  A    between atoms: _218  and  _220
REMARK   93  A    between atoms: _220  and  _221
REMARK   94  A    between atoms: _220  and  _223
REMARK   95  A    between atoms: _225  and  _227
REMARK   96  A    between atoms: _227  and  _228
REMARK   97  A    between atoms: _227  and  _230
REMARK   98  A    between atoms: _230  and  _231
REMARK   99  A    between atoms: _233  and  _235
REMARK  100  A    between atoms: _235  and  _236
REMARK  101  A    between atoms: _235  and  _238
REMARK  102  A    between atoms: _238  and  _239
REMARK  103  A    between atoms: _242  and  _244
REMARK  104  A    between atoms: _244  and  _245
REMARK  105  A    between atoms: _244  and  _247
REMARK  106  A    between atoms: _247  and  _248
REMARK  107  A    between atoms: _251  and  _253
REMARK  108  A    between atoms: _253  and  _254
REMARK  109  A    between atoms: _253  and  _256
REMARK  110  A    between atoms: _256  and  _257
REMARK  111  A    between atoms: _263  and  _265
REMARK  112  A    between atoms: _265  and  _266
REMARK  113  A    between atoms: _265  and  _268
REMARK  114  A    between atoms: _268  and  _269
REMARK  115  A    between atoms: _269  and  _270
REMARK  116  A    between atoms: _270  and  _271
REMARK  117  A    between atoms: _271  and  _272
REMARK  118  A    between atoms: _276  and  _278
REMARK  119  A    between atoms: _278  and  _279
REMARK  120  A    between atoms: _278  and  _281
REMARK  121  A    between atoms: _281  and  _282
REMARK  122  A    between atoms: _285  and  _287
REMARK  123  A    between atoms: _287  and  _288
REMARK  124  A    between atoms: _290  and  _292
REMARK  125  A    between atoms: _292  and  _293
REMARK  126  A    between atoms: _292  and  _295
REMARK  127  A    between atoms: _295  and  _296
REMARK  128  A    between atoms: _298  and  _300
REMARK  129  A    between atoms: _300  and  _301
REMARK  130  A    between atoms: _303  and  _305
REMARK  131  A    between atoms: _305  and  _306
REMARK  132  A    between atoms: _305  and  _308
REMARK  133  A    between atoms: _308  and  _309
REMARK  134  A    between atoms: _309  and  _310
REMARK  135  A    between atoms: _313  and  _315
REMARK  136  A    between atoms: _315  and  _316
REMARK  137  A    between atoms: _315  and  _318
REMARK  138  A    between atoms: _320  and  _322
REMARK  139  A    between atoms: _322  and  _323
REMARK  140  A    between atoms: _322  and  _325
REMARK  141  A    between atoms: _325  and  _326
REMARK  142  A    between atoms: _329  and  _331
REMARK  143  A    between atoms: _331  and  _332
REMARK  144  A    between atoms: _331  and  _334
REMARK  145  A    between atoms: _334  and  _335
REMARK  146  A    between atoms: _338  and  _340
REMARK  147  A    between atoms: _340  and  _341
REMARK  148  A    between atoms: _340  and  _343
REMARK  149  A    between atoms: _343  and  _344
REMARK  150  A    between atoms: _346  and  _348
REMARK  151  A    between atoms: _348  and  _349
REMARK  152  A    between atoms: _348  and  _351
REMARK  153  A    between atoms: _351  and  _352
REMARK  154  A    between atoms: _355  and  _357
REMARK  155  A    between atoms: _357  and  _358
REMARK  156  A    between atoms: _360  and  _362
REMARK  157  A    between atoms: _362  and  _363
REMARK  158  A    between atoms: _362  and  _365
REMARK  159  A    between atoms: _365  and  _366
REMARK  160  A    between atoms: _366  and  _367
REMARK  161  A    between atoms: _369  and  _371
REMARK  162  A    between atoms: _371  and  _372
REMARK  163  A    between atoms: _371  and  _374
REMARK  164  A    between atoms: _374  and  _375
REMARK  165  A    between atoms: _380  and  _382
REMARK  166  A    between atoms: _382  and  _383
REMARK  167  A    between atoms: _382  and  _385
REMARK  168  A    between atoms: _385  and  _386
REMARK  169  A    between atoms: _389  and  _391
REMARK  170  A    between atoms: _391  and  _392
REMARK  171  A    between atoms: _391  and  _394
REMARK  172  A    between atoms: _394  and  _395
REMARK  173  A    between atoms: _400  and  _402
REMARK  174  A    between atoms: _402  and  _403
REMARK  175  A    between atoms: _402  and  _405
REMARK  176  A    between atoms: _407  and  _409
REMARK  177  A    between atoms: _409  and  _410
REMARK  178  A    between atoms: _409  and  _412
REMARK  179  A    between atoms: _412  and  _413
REMARK  180  A    between atoms: _416  and  _418
REMARK  181  A    between atoms: _418  and  _419
REMARK  182  A    between atoms: _418  and  _421
REMARK  183  A    between atoms: _421  and  _422
REMARK  184  A    between atoms: _427  and  _429
REMARK  185  A    between atoms: _429  and  _430
REMARK  186  A    between atoms: _429  and  _432
REMARK  187  A    between atoms: _432  and  _433
REMARK  188  A    between atoms: _436  and  _438
REMARK  189  A    between atoms: _438  and  _439
REMARK  190  A    between atoms: _438  and  _441
REMARK  191  A    between atoms: _441  and  _442
REMARK  192  A    between atoms: _447  and  _448
REMARK  193  A    between atoms: _450  and  _452
REMARK  194  A    between atoms: _452  and  _453
REMARK  195  A    between atoms: _452  and  _455
REMARK  196  A    between atoms: _455  and  _456
REMARK  197  A    between atoms: _459  and  _461
REMARK  198  A    between atoms: _461  and  _462
REMARK  199  A    between atoms: _461  and  _464
REMARK  200  A    between atoms: _464  and  _465
REMARK  201  A    between atoms: _467  and  _469
REMARK  202  A    between atoms: _469  and  _470
REMARK  203  A    between atoms: _469  and  _472
REMARK  204  A    between atoms: _472  and  _473
REMARK  205  A    between atoms: _476  and  _478
REMARK  206  A    between atoms: _478  and  _479
REMARK  207  A    between atoms: _478  and  _481
REMARK  208  A    between atoms: _481  and  _482
REMARK  209  A    between atoms: _486  and  MN_638
REMARK  210  A    between atoms: _487  and  _489
REMARK  211  A    between atoms: _489  and  _490
REMARK  212  A    between atoms: _489  and  _492
REMARK  213  A    between atoms: _492  and  _493
REMARK  214  A    between atoms: _493  and  _494
REMARK  215  A    between atoms: _497  and  _499
REMARK  216  A    between atoms: _499  and  _500
REMARK  217  A    between atoms: _499  and  _502
REMARK  218  A    between atoms: _502  and  _503
REMARK  219  A    between atoms: _503  and  _504
REMARK  220  A    between atoms: _504  and  _505
REMARK  221  A    between atoms: _514  and  _516
REMARK  222  A    between atoms: _516  and  _517
REMARK  223  A    between atoms: _516  and  _519
REMARK  224  A    between atoms: _519  and  _520
REMARK  225  A    between atoms: _524  and  MN_638
REMARK  226  A    between atoms: _525  and  _527
REMARK  227  A    between atoms: _527  and  _528
REMARK  228  A    between atoms: _531  and  _532
REMARK  229  A    between atoms: _537  and  _539
REMARK  230  A    between atoms: _539  and  _540
REMARK  231  A    between atoms: _539  and  _542
REMARK  232  A    between atoms: _542  and  _543
REMARK  233  A    between atoms: _546  and  _548
REMARK  234  A    between atoms: _548  and  _549
REMARK  235  A    between atoms: _548  and  _551
REMARK  236  A    between atoms: _551  and  _552
REMARK  237  A    between atoms: _555  and  _557
REMARK  238  A    between atoms: _557  and  _558
REMARK  239  A    between atoms: _557  and  _560
REMARK  240  A    between atoms: _563  and  _564
REMARK  241  A    between atoms: _569  and  _571
REMARK  242  A    between atoms: _571  and  _572
REMARK  243  A    between atoms: _571  and  _574
REMARK  244  A    between atoms: _574  and  _575
REMARK  245  A    between atoms: _578  and  _580
REMARK  246  A    between atoms: _580  and  _581
REMARK  247  A    between atoms: _580  and  _583
REMARK  248  A    between atoms: _583  and  _584
REMARK  249  A    between atoms: _584  and  _585
REMARK  250  A    between atoms: _585  and  _586
REMARK  251  A    between atoms: _586  and  _587
REMARK  252  A    between atoms: _591  and  _593
REMARK  253  A    between atoms: _593  and  _594
REMARK  254  A    between atoms: _593  and  _596
REMARK  255  A    between atoms: _596  and  _597
REMARK  256  A    between atoms: _603  and  _605
REMARK  257  A    between atoms: _605  and  _606
REMARK  258  A    between atoms: _609  and  _611
REMARK  259  A    between atoms: _611  and  _612
REMARK  260  A    between atoms: _611  and  _614
REMARK  261  A    between atoms: _614  and  _615
REMARK  262  A    between atoms: _621  and  _623
REMARK  263  A    between atoms: _623  and  _624
REMARK  264  A    between atoms: _623  and  _626
REMARK  265  A    between atoms: _626  and  _627
REMARK  266  A    between atoms: _627  and  _628
REMARK  267  A    between atoms: _628  and  _629
REMARK                            x       y       z     vdW  Elec       q    Type
REMARK                         _______ _______ _______ _____ _____    ______ ____
ROOT
ATOM      1  CA  GLY A   3      86.316 -27.987  49.287  0.00  0.00    +0.176 C 
ENDROOT
BRANCH   1   3
ATOM      2  C   PRO A   2      87.993 -29.763  49.114  0.00  0.00    +0.241 C 
ATOM      3  N   GLY A   3      87.572 -28.637  49.690  0.00  0.00    -0.295 N 
ATOM      4  H   GLY A   3      88.146 -28.207  50.443  0.00  0.00    +0.150 HD
ATOM      5  O   PRO A   2      87.382 -30.328  48.209  0.00  0.00    -0.273 OA
BRANCH   2   9
ATOM      6  C   ILE A   1      88.800 -32.728  49.604  0.00  0.00    +0.241 C 
ATOM      7  O   ILE A   1      88.006 -32.564  50.522  0.00  0.00    -0.273 OA
ATOM      8  N   PRO A   2      89.520 -31.721  49.120  0.00  0.00    -0.272 N 
ATOM      9  CA  PRO A   2      89.283 -30.364  49.638  0.00  0.00    +0.152 C 
ATOM     10  CB  PRO A   2      90.497 -29.574  49.144  0.00  0.00    +0.031 C 
ATOM     11  CG  PRO A   2      91.063 -30.340  48.047  0.00  0.00    +0.024 C 
ATOM     12  CD  PRO A   2      90.650 -31.774  48.178  0.00  0.00    +0.094 C 
BRANCH   6  13
ATOM     13  CA  ILE A   1      89.022 -34.128  48.990  0.00  0.00    +0.145 C 
BRANCH  13  14
ATOM     14  N   ILE A   1      89.169 -35.127  50.041  0.00  0.00    -0.238 NA
ATOM     15  H   ILE A   1      88.319 -35.370  50.588  0.00  0.00    +0.142 HD
ENDBRANCH  13  14
BRANCH  13  16
ATOM     16  CB  ILE A   1      87.800 -34.466  48.132  0.00  0.00    +0.025 C 
ATOM     17  CG2 ILE A   1      87.619 -33.427  47.021  0.00  0.00    +0.002 C 
BRANCH  16  18
ATOM     18  CG1 ILE A   1      87.901 -35.901  47.582  0.00  0.00    +0.002 C 
ATOM     19  CD1 ILE A   1      86.639 -36.400  46.902  0.00  0.00    +0.000 C 
ENDBRANCH  16  18
ENDBRANCH  13  16
ENDBRANCH   6  13
ENDBRANCH   2   9
ENDBRANCH   1   3
BRANCH   1  20
ATOM     20  C   GLY A   3      86.312 -27.457  47.854  0.00  0.00    +0.243 C 
ATOM     21  N   ASN A   4      87.499 -27.192  47.312  0.00  0.00    -0.297 N 
ATOM     22  H   ASN A   4      88.358 -27.449  47.840  0.00  0.00    +0.150 HD
ATOM     23  O   GLY A   3      85.248 -27.326  47.235  0.00  0.00    -0.273 OA
BRANCH  21  24
ATOM     24  CA  ASN A   4      87.642 -26.556  46.008  0.00  0.00    +0.158 C 
BRANCH  24  25
ATOM     25  C   ASN A   4      88.210 -27.485  44.951  0.00  0.00    +0.241 C 
ATOM     26  N   ALA A   5      88.009 -28.789  45.111  0.00  0.00    -0.298 N 
ATOM     27  H   ALA A   5      87.543 -29.141  45.972  0.00  0.00    +0.150 HD
ATOM     28  O   ASN A   4      88.847 -27.040  44.016  0.00  0.00    -0.273 OA
BRANCH  26  29
ATOM     29  CA  ALA A   5      88.441 -29.727  44.081  0.00  0.00    +0.137 C 
ATOM     30  CB  ALA A   5      89.914 -30.107  44.260  0.00  0.00    +0.030 C 
BRANCH  29  31
ATOM     31  C   ALA A   5      87.561 -30.947  44.135  0.00  0.00    +0.227 C 
ATOM     32  O   ALA A   5      86.690 -31.051  45.003  0.00  0.00    -0.286 OA
ENDBRANCH  29  31
ENDBRANCH  26  29
ENDBRANCH  24  25
BRANCH  24  33
ATOM     33  CB  ASN A   4      88.489 -25.279  46.112  0.00  0.00    +0.114 C 
BRANCH  33  34
ATOM     34  CG  ASN A   4      89.885 -25.529  46.676  0.00  0.00    +0.222 C 
ATOM     35  OD1 ASN A   4      90.148 -26.562  47.292  0.00  0.00    -0.275 OA
ATOM     36  ND2 ASN A   4      90.783 -24.564  46.483  0.00  0.00    -0.329 N 
ATOM     37 HD21 ASN A   4      91.747 -24.668  46.859  0.00  0.00    +0.145 HD
ATOM     38 HD22 ASN A   4      90.520 -23.706  45.957  0.00  0.00    +0.145 HD
ENDBRANCH  33  34
ENDBRANCH  24  33
ENDBRANCH  21  24
ENDBRANCH   1  20
TORSDOF 13
REMARK  Name = ../refined-set-2016/2wqp/2wqp_pocket.pdb
REMARK  267 active torsions:
REMARK  status: ('A' for Active; 'I' for Inactive)
REMARK    1  A    between atoms: _1  and  _3
REMARK    2  A    between atoms: _3  and  _4
REMARK    3  A    between atoms: _3  and  _6
REMARK    4  A    between atoms: _6  and  _7
REMARK    5  A    between atoms: _10  and  _12
REMARK    6  A    between atoms: _12  and  _13
REMARK    7  A    between atoms: _12  and  _15
REMARK    8  A    between atoms: _15  and  _16
REMARK    9  A    between atoms: _16  and  _17
REMARK   10  A    between atoms: _20  and  _22
REMARK   11  A    between atoms: _22  and  _23
REMARK   12  A    between atoms: _22  and  _25
REMARK   13  A    between atoms: _25  and  _26
REMARK   14  A    between atoms: _29  and  _31
REMARK   15  A    between atoms: _31  and  _32
REMARK   16  A    between atoms: _34  and  _36
REMARK   17  A    between atoms: _36  and  _37
REMARK   18  A    between atoms: _36  and  _39
REMARK   19  A    between atoms: _39  and  _40
REMARK   20  A    between atoms: _43  and  _45
REMARK   21  A    between atoms: _45  and  _46
REMARK   22  A    between atoms: _45  and  _48
REMARK   23  A    between atoms: _48  and  _49
REMARK   24  A    between atoms: _54  and  _56
REMARK   25  A    between atoms: _56  and  _57
REMARK   26  A    between atoms: _56  and  _59
REMARK   27  A    between atoms: _59  and  _60
REMARK   28  A    between atoms: _60  and  _61
REMARK   29  A    between atoms: _61  and  _62
REMARK   30  A    between atoms: _62  and  _63
REMARK   31  A    between atoms: _67  and  _69
REMARK   32  A    between atoms: _69  and  _70
REMARK   33  A    between atoms: _69  and  _72
REMARK   34  A    between atoms: _72  and  _73
REMARK   35  A    between atoms: _78  and  _80
REMARK   36  A    between atoms: _80  and  _81
REMARK   37  A    between atoms: _80  and  _83
REMARK   38  A    between atoms: _83  and  _84
REMARK   39  A    between atoms: _84  and  _85
REMARK   40  A    between atoms: _90  and  _92
REMARK   41  A    between atoms: _92  and  _93
REMARK   42  A    between atoms: _92  and  _95
REMARK   43  A    between atoms: _95  and  _96
REMARK   44  A    between atoms: _99  and  _101
REMARK   45  A    between atoms: _101  and  _102
REMARK   46  A    between atoms: _101  and  _104
REMARK   47  A    between atoms: _104  and  _105
REMARK   48  A    between atoms: _110  and  _112
REMARK   49  A    between atoms: _112  and  _113
REMARK   50  A    between atoms: _112  and  _115
REMARK   51  A    between atoms: _115  and  _116
REMARK   52  A    between atoms: _116  and  _117
REMARK   53  A    between atoms: _120  and  _122
REMARK   54  A    between atoms: _122  and  _123
REMARK   55  A    between atoms: _122  and  _125
REMARK   56  A    between atoms: _125  and  _126
REMARK   57  A    between atoms: _130  and  _131
REMARK   58  A    between atoms: _136  and  _138
REMARK   59  A    between atoms: _138  and  _139
REMARK   60  A    between atoms: _141  and  _143
REMARK   61  A    between atoms: _143  and  _144
REMARK   62  A    between atoms: _143  and  _146
REMARK   63  A    between atoms: _146  and  _147
REMARK   64  A    between atoms: _152  and  _154
REMARK   65  A    between atoms: _154  and  _155
REMARK   66  A    between atoms: _158  and  _160
REMARK   67  A    between atoms: _160  and  _161
REMARK   68  A    between atoms: _160  and  _163
REMARK   69  A    between atoms: _166  and  _168
REMARK   70  A    between atoms: _168  and  _169
REMARK   71  A    between atoms: _168  and  _171
REMARK   72  A    between atoms: _171  and  _172
REMARK   73  A    between atoms: _174  and  _176
REMARK   74  A    between atoms: _176  and  _177
REMARK   75  A    between atoms: _176  and  _179
REMARK   76  A    between atoms: _179  and  _180
REMARK   77  A    between atoms: _183  and  _185
REMARK   78  A    between atoms: _185  and  _186
REMARK   79  A    between atoms: _185  and  _188
REMARK   80  A    between atoms: _188  and  _189
REMARK   81  A    between atoms: _192  and  _194
REMARK   82  A    between atoms: _194  and  _195
REMARK   83  A    between atoms: _194  and  _197
REMARK   84  A    between atoms: _197  and  _198
REMARK   85  A    between atoms: _198  and  _199
REMARK   86  A    between atoms: _201  and  _203
REMARK   87  A    between atoms: _203  and  _204
REMARK   88  A    between atoms: _203  and  _206
REMARK   89  A    between atoms: _206  and  _207
REMARK   90  A    between atoms: _207  and  _208
REMARK   91  A    between atoms: _208  and  _209
REMARK   92  A    between atoms: _218  and  _220
REMARK   93  A    between atoms: _220  and  _221
REMARK   94  A    between atoms: _220  and  _223
REMARK   95  A    between atoms: _225  and  _227
REMARK   96  A    between atoms: _227  and  _228
REMARK   97  A    between atoms: _227  and  _230
REMARK   98  A    between atoms: _230  and  _231
REMARK   99  A    between atoms: _233  and  _235
REMARK  100  A    between atoms: _235  and  _236
REMARK  101  A    between atoms: _235  and  _238
REMARK  102  A    between atoms: _238  and  _239
REMARK  103  A    between atoms: _242  and  _244
REMARK  104  A    between atoms: _244  and  _245
REMARK  105  A    between atoms: _244  and  _247
REMARK  106  A    between atoms: _247  and  _248
REMARK  107  A    between atoms: _251  and  _253
REMARK  108  A    between atoms: _253  and  _254
REMARK  109  A    between atoms: _253  and  _256
REMARK  110  A    between atoms: _256  and  _257
REMARK  111  A    between atoms: _263  and  _265
REMARK  112  A    between atoms: _265  and  _266
REMARK  113  A    between atoms: _265  and  _268
REMARK  114  A    between atoms: _268  and  _269
REMARK  115  A    between atoms: _269  and  _270
REMARK  116  A    between atoms: _270  and  _271
REMARK  117  A    between atoms: _271  and  _272
REMARK  118  A    between atoms: _276  and  _278
REMARK  119  A    between atoms: _278  and  _279
REMARK  120  A    between atoms: _278  and  _281
REMARK  121  A    between atoms: _281  and  _282
REMARK  122  A    between atoms: _285  and  _287
REMARK  123  A    between atoms: _287  and  _288
REMARK  124  A    between atoms: _290  and  _292
REMARK  125  A    between atoms: _292  and  _293
REMARK  126  A    between atoms: _292  and  _295
REMARK  127  A    between atoms: _295  and  _296
REMARK  128  A    between atoms: _298  and  _300
REMARK  129  A    between atoms: _300  and  _301
REMARK  130  A    between atoms: _303  and  _305
REMARK  131  A    between atoms: _305  and  _306
REMARK  132  A    between atoms: _305  and  _308
REMARK  133  A    between atoms: _308  and  _309
REMARK  134  A    between atoms: _309  and  _310
REMARK  135  A    between atoms: _313  and  _315
REMARK  136  A    between atoms: _315  and  _316
REMARK  137  A    between atoms: _315  and  _318
REMARK  138  A    between atoms: _320  and  _322
REMARK  139  A    between atoms: _322  and  _323
REMARK  140  A    between atoms: _322  and  _325
REMARK  141  A    between atoms: _325  and  _326
REMARK  142  A    between atoms: _329  and  _331
REMARK  143  A    between atoms: _331  and  _332
REMARK  144  A    between atoms: _331  and  _334
REMARK  145  A    between atoms: _334  and  _335
REMARK  146  A    between atoms: _338  and  _340
REMARK  147  A    between atoms: _340  and  _341
REMARK  148  A    between atoms: _340  and  _343
REMARK  149  A    between atoms: _343  and  _344
REMARK  150  A    between atoms: _346  and  _348
REMARK  151  A    between atoms: _348  and  _349
REMARK  152  A    between atoms: _348  and  _351
REMARK  153  A    between atoms: _351  and  _352
REMARK  154  A    between atoms: _355  and  _357
REMARK  155  A    between atoms: _357  and  _358
REMARK  156  A    between atoms: _360  and  _362
REMARK  157  A    between atoms: _362  and  _363
REMARK  158  A    between atoms: _362  and  _365
REMARK  159  A    between atoms: _365  and  _366
REMARK  160  A    between atoms: _366  and  _367
REMARK  161  A    between atoms: _369  and  _371
REMARK  162  A    between atoms: _371  and  _372
REMARK  163  A    between atoms: _371  and  _374
REMARK  164  A    between atoms: _374  and  _375
REMARK  165  A    between atoms: _380  and  _382
REMARK  166  A    between atoms: _382  and  _383
REMARK  167  A    between atoms: _382  and  _385
REMARK  168  A    between atoms: _385  and  _386
REMARK  169  A    between atoms: _389  and  _391
REMARK  170  A    between atoms: _391  and  _392
REMARK  171  A    between atoms: _391  and  _394
REMARK  172  A    between atoms: _394  and  _395
REMARK  173  A    between atoms: _400  and  _402
REMARK  174  A    between atoms: _402  and  _403
REMARK  175  A    between atoms: _402  and  _405
REMARK  176  A    between atoms: _407  and  _409
REMARK  177  A    between atoms: _409  and  _410
REMARK  178  A    between atoms: _409  and  _412
REMARK  179  A    between atoms: _412  and  _413
REMARK  180  A    between atoms: _416  and  _418
REMARK  181  A    between atoms: _418  and  _419
REMARK  182  A    between atoms: _418  and  _421
REMARK  183  A    between atoms: _421  and  _422
REMARK  184  A    between atoms: _427  and  _429
REMARK  185  A    between atoms: _429  and  _430
REMARK  186  A    between atoms: _429  and  _432
REMARK  187  A    between atoms: _432  and  _433
REMARK  188  A    between atoms: _436  and  _438
REMARK  189  A    between atoms: _438  and  _439
REMARK  190  A    between atoms: _438  and  _441
REMARK  191  A    between atoms: _441  and  _442
REMARK  192  A    between atoms: _447  and  _448
REMARK  193  A    between atoms: _450  and  _452
REMARK  194  A    between atoms: _452  and  _453
REMARK  195  A    between atoms: _452  and  _455
REMARK  196  A    between atoms: _455  and  _456
REMARK  197  A    between atoms: _459  and  _461
REMARK  198  A    between atoms: _461  and  _462
REMARK  199  A    between atoms: _461  and  _464
REMARK  200  A    between atoms: _464  and  _465
REMARK  201  A    between atoms: _467  and  _469
REMARK  202  A    between atoms: _469  and  _470
REMARK  203  A    between atoms: _469  and  _472
REMARK  204  A    between atoms: _472  and  _473
REMARK  205  A    between atoms: _476  and  _478
REMARK  206  A    between atoms: _478  and  _479
REMARK  207  A    between atoms: _478  and  _481
REMARK  208  A    between atoms: _481  and  _482
REMARK  209  A    between atoms: _486  and  MN_638
REMARK  210  A    between atoms: _487  and  _489
REMARK  211  A    between atoms: _489  and  _490
REMARK  212  A    between atoms: _489  and  _492
REMARK  213  A    between atoms: _492  and  _493
REMARK  214  A    between atoms: _493  and  _494
REMARK  215  A    between atoms: _497  and  _499
REMARK  216  A    between atoms: _499  and  _500
REMARK  217  A    between atoms: _499  and  _502
REMARK  218  A    between atoms: _502  and  _503
REMARK  219  A    between atoms: _503  and  _504
REMARK  220  A    between atoms: _504  and  _505
REMARK  221  A    between atoms: _514  and  _516
REMARK  222  A    between atoms: _516  and  _517
REMARK  223  A    between atoms: _516  and  _519
REMARK  224  A    between atoms: _519  and  _520
REMARK  225  A    between atoms: _524  and  MN_638
REMARK  226  A    between atoms: _525  and  _527
REMARK  227  A    between atoms: _527  and  _528
REMARK  228  A    between atoms: _531  and  _532
REMARK  229  A    between atoms: _537  and  _539
REMARK  230  A    between atoms: _539  and  _540
REMARK  231  A    between atoms: _539  and  _542
REMARK  232  A    between atoms: _542  and  _543
REMARK  233  A    between atoms: _546  and  _548
REMARK  234  A    between atoms: _548  and  _549
REMARK  235  A    between atoms: _548  and  _551
REMARK  236  A    between atoms: _551  and  _552
REMARK  237  A    between atoms: _555  and  _557
REMARK  238  A    between atoms: _557  and  _558
REMARK  239  A    between atoms: _557  and  _560
REMARK  240  A    between atoms: _563  and  _564
REMARK  241  A    between atoms: _569  and  _571
REMARK  242  A    between atoms: _571  and  _572
REMARK  243  A    between atoms: _571  and  _574
REMARK  244  A    between atoms: _574  and  _575
REMARK  245  A    between atoms: _578  and  _580
REMARK  246  A    between atoms: _580  and  _581
REMARK  247  A    between atoms: _580  and  _583
REMARK  248  A    between atoms: _583  and  _584
REMARK  249  A    between atoms: _584  and  _585
REMARK  250  A    between atoms: _585  and  _586
REMARK  251  A    between atoms: _586  and  _587
REMARK  252  A    between atoms: _591  and  _593
REMARK  253  A    between atoms: _593  and  _594
REMARK  254  A    between atoms: _593  and  _596
REMARK  255  A    between atoms: _596  and  _597
REMARK  256  A    between atoms: _603  and  _605
REMARK  257  A    between atoms: _605  and  _606
REMARK  258  A    between atoms: _609  and  _611
REMARK  259  A    between atoms: _611  and  _612
REMARK  260  A    between atoms: _611  and  _614
REMARK  261  A    between atoms: _614  and  _615
REMARK  262  A    between atoms: _621  and  _623
REMARK  263  A    between atoms: _623  and  _624
REMARK  264  A    between atoms: _623  and  _626
REMARK  265  A    between atoms: _626  and  _627
REMARK  266  A    between atoms: _627  and  _628
REMARK  267  A    between atoms: _628  and  _629
REMARK                            x       y       z     vdW  Elec       q    Type
REMARK                         _______ _______ _______ _____ _____    ______ ____
ROOT
ATOM      1  CA  SER A   2      92.146 -35.991  46.739  0.00  0.00    +0.178 C 
ENDROOT
BRANCH   1   4
ATOM      2  C   VAL A   1      90.862 -35.021  44.962  0.00  0.00    +0.238 C 
ATOM      3  O   VAL A   1      90.713 -33.985  45.637  0.00  0.00    -0.274 OA
ATOM      4  N   SER A   2      91.585 -36.044  45.404  0.00  0.00    -0.295 N 
ATOM      5  H   SER A   2      91.747 -36.874  44.798  0.00  0.00    +0.150 HD
BRANCH   2   6
ATOM      6  CA  VAL A   1      90.189 -35.180  43.601  0.00  0.00    +0.145 C 
BRANCH   6   7
ATOM      7  CB  VAL A   1      91.232 -35.263  42.464  0.00  0.00    +0.025 C 
ATOM      8  CG2 VAL A   1      92.131 -34.025  42.456  0.00  0.00    +0.002 C 
ATOM      9  CG1 VAL A   1      90.535 -35.447  41.126  0.00  0.00    +0.002 C 
ENDBRANCH   6   7
BRANCH   6  10
ATOM     10  N   VAL A   1      89.238 -34.089  43.392  0.00  0.00    -0.238 NA
ATOM     11  H   VAL A   1      89.575 -33.107  43.447  0.00  0.00    +0.142 HD
ENDBRANCH   6  10
ENDBRANCH   2   6
ENDBRANCH   1   4
BRANCH   1  12
ATOM     12  C   SER A   2      93.218 -34.911  46.856  0.00  0.00    +0.243 C 
ATOM     13  N   ILE A   3      93.402 -34.443  48.085  0.00  0.00    -0.298 N 
ATOM     14  H   ILE A   3      92.808 -34.800  48.860  0.00  0.00    +0.150 HD
ATOM     15  O   SER A   2      93.855 -34.512  45.872  0.00  0.00    -0.273 OA
BRANCH  13  16
ATOM     16  CA  ILE A   3      94.406 -33.453  48.366  0.00  0.00    +0.137 C 
BRANCH  16  17
ATOM     17  CB  ILE A   3      94.298 -32.942  49.819  0.00  0.00    +0.026 C 
ATOM     18  CG2 ILE A   3      94.489 -34.067  50.837  0.00  0.00    +0.002 C 
BRANCH  17  19
ATOM     19  CG1 ILE A   3      95.280 -31.804  50.056  0.00  0.00    +0.002 C 
ATOM     20  CD1 ILE A   3      95.003 -30.596  49.214  0.00  0.00    +0.000 C 
ENDBRANCH  17  19
ENDBRANCH  16  17
BRANCH  16  21
ATOM     21  C   ILE A   3      95.789 -34.042  48.069  0.00  0.00    +0.227 C 
ATOM     22  O   ILE A   3      96.668 -33.336  47.595  0.00  0.00    -0.286 OA
ENDBRANCH  16  21
ENDBRANCH  13  16
ENDBRANCH   1  12
BRANCH   1  23
ATOM     23  CB  SER A   2      92.735 -37.339  47.157  0.00  0.00    +0.166 C 
BRANCH  23  24
ATOM     24  OG  SER A   2      93.957 -37.572  46.485  0.00  0.00    -0.380 OA
ATOM     25  H   SER A   2      94.325 -38.447  46.766  0.00  0.00    +0.211 HD
ENDBRANCH  23  24
ENDBRANCH   1  23
TORSDOF 11
REMARK  Name = ../refined-set-2016/2wqp/2wqp_pocket.pdb
REMARK  267 active torsions:
REMARK  status: ('A' for Active; 'I' for Inactive)
REMARK    1  A    between atoms: _1  and  _3
REMARK    2  A    between atoms: _3  and  _4
REMARK    3  A    between atoms: _3  and  _6
REMARK    4  A    between atoms: _6  and  _7
REMARK    5  A    between atoms: _10  and  _12
REMARK    6  A    between atoms: _12  and  _13
REMARK    7  A    between atoms: _12  and  _15
REMARK    8  A    between atoms: _15  and  _16
REMARK    9  A    between atoms: _16  and  _17
REMARK   10  A    between atoms: _20  and  _22
REMARK   11  A    between atoms: _22  and  _23
REMARK   12  A    between atoms: _22  and  _25
REMARK   13  A    between atoms: _25  and  _26
REMARK   14  A    between atoms: _29  and  _31
REMARK   15  A    between atoms: _31  and  _32
REMARK   16  A    between atoms: _34  and  _36
REMARK   17  A    between atoms: _36  and  _37
REMARK   18  A    between atoms: _36  and  _39
REMARK   19  A    between atoms: _39  and  _40
REMARK   20  A    between atoms: _43  and  _45
REMARK   21  A    between atoms: _45  and  _46
REMARK   22  A    between atoms: _45  and  _48
REMARK   23  A    between atoms: _48  and  _49
REMARK   24  A    between atoms: _54  and  _56
REMARK   25  A    between atoms: _56  and  _57
REMARK   26  A    between atoms: _56  and  _59
REMARK   27  A    between atoms: _59  and  _60
REMARK   28  A    between atoms: _60  and  _61
REMARK   29  A    between atoms: _61  and  _62
REMARK   30  A    between atoms: _62  and  _63
REMARK   31  A    between atoms: _67  and  _69
REMARK   32  A    between atoms: _69  and  _70
REMARK   33  A    between atoms: _69  and  _72
REMARK   34  A    between atoms: _72  and  _73
REMARK   35  A    between atoms: _78  and  _80
REMARK   36  A    between atoms: _80  and  _81
REMARK   37  A    between atoms: _80  and  _83
REMARK   38  A    between atoms: _83  and  _84
REMARK   39  A    between atoms: _84  and  _85
REMARK   40  A    between atoms: _90  and  _92
REMARK   41  A    between atoms: _92  and  _93
REMARK   42  A    between atoms: _92  and  _95
REMARK   43  A    between atoms: _95  and  _96
REMARK   44  A    between atoms: _99  and  _101
REMARK   45  A    between atoms: _101  and  _102
REMARK   46  A    between atoms: _101  and  _104
REMARK   47  A    between atoms: _104  and  _105
REMARK   48  A    between atoms: _110  and  _112
REMARK   49  A    between atoms: _112  and  _113
REMARK   50  A    between atoms: _112  and  _115
REMARK   51  A    between atoms: _115  and  _116
REMARK   52  A    between atoms: _116  and  _117
REMARK   53  A    between atoms: _120  and  _122
REMARK   54  A    between atoms: _122  and  _123
REMARK   55  A    between atoms: _122  and  _125
REMARK   56  A    between atoms: _125  and  _126
REMARK   57  A    between atoms: _130  and  _131
REMARK   58  A    between atoms: _136  and  _138
REMARK   59  A    between atoms: _138  and  _139
REMARK   60  A    between atoms: _141  and  _143
REMARK   61  A    between atoms: _143  and  _144
REMARK   62  A    between atoms: _143  and  _146
REMARK   63  A    between atoms: _146  and  _147
REMARK   64  A    between atoms: _152  and  _154
REMARK   65  A    between atoms: _154  and  _155
REMARK   66  A    between atoms: _158  and  _160
REMARK   67  A    between atoms: _160  and  _161
REMARK   68  A    between atoms: _160  and  _163
REMARK   69  A    between atoms: _166  and  _168
REMARK   70  A    between atoms: _168  and  _169
REMARK   71  A    between atoms: _168  and  _171
REMARK   72  A    between atoms: _171  and  _172
REMARK   73  A    between atoms: _174  and  _176
REMARK   74  A    between atoms: _176  and  _177
REMARK   75  A    between atoms: _176  and  _179
REMARK   76  A    between atoms: _179  and  _180
REMARK   77  A    between atoms: _183  and  _185
REMARK   78  A    between atoms: _185  and  _186
REMARK   79  A    between atoms: _185  and  _188
REMARK   80  A    between atoms: _188  and  _189
REMARK   81  A    between atoms: _192  and  _194
REMARK   82  A    between atoms: _194  and  _195
REMARK   83  A    between atoms: _194  and  _197
REMARK   84  A    between atoms: _197  and  _198
REMARK   85  A    between atoms: _198  and  _199
REMARK   86  A    between atoms: _201  and  _203
REMARK   87  A    between atoms: _203  and  _204
REMARK   88  A    between atoms: _203  and  _206
REMARK   89  A    between atoms: _206  and  _207
REMARK   90  A    between atoms: _207  and  _208
REMARK   91  A    between atoms: _208  and  _209
REMARK   92  A    between atoms: _218  and  _220
REMARK   93  A    between atoms: _220  and  _221
REMARK   94  A    between atoms: _220  and  _223
REMARK   95  A    between atoms: _225  and  _227
REMARK   96  A    between atoms: _227  and  _228
REMARK   97  A    between atoms: _227  and  _230
REMARK   98  A    between atoms: _230  and  _231
REMARK   99  A    between atoms: _233  and  _235
REMARK  100  A    between atoms: _235  and  _236
REMARK  101  A    between atoms: _235  and  _238
REMARK  102  A    between atoms: _238  and  _239
REMARK  103  A    between atoms: _242  and  _244
REMARK  104  A    between atoms: _244  and  _245
REMARK  105  A    between atoms: _244  and  _247
REMARK  106  A    between atoms: _247  and  _248
REMARK  107  A    between atoms: _251  and  _253
REMARK  108  A    between atoms: _253  and  _254
REMARK  109  A    between atoms: _253  and  _256
REMARK  110  A    between atoms: _256  and  _257
REMARK  111  A    between atoms: _263  and  _265
REMARK  112  A    between atoms: _265  and  _266
REMARK  113  A    between atoms: _265  and  _268
REMARK  114  A    between atoms: _268  and  _269
REMARK  115  A    between atoms: _269  and  _270
REMARK  116  A    between atoms: _270  and  _271
REMARK  117  A    between atoms: _271  and  _272
REMARK  118  A    between atoms: _276  and  _278
REMARK  119  A    between atoms: _278  and  _279
REMARK  120  A    between atoms: _278  and  _281
REMARK  121  A    between atoms: _281  and  _282
REMARK  122  A    between atoms: _285  and  _287
REMARK  123  A    between atoms: _287  and  _288
REMARK  124  A    between atoms: _290  and  _292
REMARK  125  A    between atoms: _292  and  _293
REMARK  126  A    between atoms: _292  and  _295
REMARK  127  A    between atoms: _295  and  _296
REMARK  128  A    between atoms: _298  and  _300
REMARK  129  A    between atoms: _300  and  _301
REMARK  130  A    between atoms: _303  and  _305
REMARK  131  A    between atoms: _305  and  _306
REMARK  132  A    between atoms: _305  and  _308
REMARK  133  A    between atoms: _308  and  _309
REMARK  134  A    between atoms: _309  and  _310
REMARK  135  A    between atoms: _313  and  _315
REMARK  136  A    between atoms: _315  and  _316
REMARK  137  A    between atoms: _315  and  _318
REMARK  138  A    between atoms: _320  and  _322
REMARK  139  A    between atoms: _322  and  _323
REMARK  140  A    between atoms: _322  and  _325
REMARK  141  A    between atoms: _325  and  _326
REMARK  142  A    between atoms: _329  and  _331
REMARK  143  A    between atoms: _331  and  _332
REMARK  144  A    between atoms: _331  and  _334
REMARK  145  A    between atoms: _334  and  _335
REMARK  146  A    between atoms: _338  and  _340
REMARK  147  A    between atoms: _340  and  _341
REMARK  148  A    between atoms: _340  and  _343
REMARK  149  A    between atoms: _343  and  _344
REMARK  150  A    between atoms: _346  and  _348
REMARK  151  A    between atoms: _348  and  _349
REMARK  152  A    between atoms: _348  and  _351
REMARK  153  A    between atoms: _351  and  _352
REMARK  154  A    between atoms: _355  and  _357
REMARK  155  A    between atoms: _357  and  _358
REMARK  156  A    between atoms: _360  and  _362
REMARK  157  A    between atoms: _362  and  _363
REMARK  158  A    between atoms: _362  and  _365
REMARK  159  A    between atoms: _365  and  _366
REMARK  160  A    between atoms: _366  and  _367
REMARK  161  A    between atoms: _369  and  _371
REMARK  162  A    between atoms: _371  and  _372
REMARK  163  A    between atoms: _371  and  _374
REMARK  164  A    between atoms: _374  and  _375
REMARK  165  A    between atoms: _380  and  _382
REMARK  166  A    between atoms: _382  and  _383
REMARK  167  A    between atoms: _382  and  _385
REMARK  168  A    between atoms: _385  and  _386
REMARK  169  A    between atoms: _389  and  _391
REMARK  170  A    between atoms: _391  and  _392
REMARK  171  A    between atoms: _391  and  _394
REMARK  172  A    between atoms: _394  and  _395
REMARK  173  A    between atoms: _400  and  _402
REMARK  174  A    between atoms: _402  and  _403
REMARK  175  A    between atoms: _402  and  _405
REMARK  176  A    between atoms: _407  and  _409
REMARK  177  A    between atoms: _409  and  _410
REMARK  178  A    between atoms: _409  and  _412
REMARK  179  A    between atoms: _412  and  _413
REMARK  180  A    between atoms: _416  and  _418
REMARK  181  A    between atoms: _418  and  _419
REMARK  182  A    between atoms: _418  and  _421
REMARK  183  A    between atoms: _421  and  _422
REMARK  184  A    between atoms: _427  and  _429
REMARK  185  A    between atoms: _429  and  _430
REMARK  186  A    between atoms: _429  and  _432
REMARK  187  A    between atoms: _432  and  _433
REMARK  188  A    between atoms: _436  and  _438
REMARK  189  A    between atoms: _438  and  _439
REMARK  190  A    between atoms: _438  and  _441
REMARK  191  A    between atoms: _441  and  _442
REMARK  192  A    between atoms: _447  and  _448
REMARK  193  A    between atoms: _450  and  _452
REMARK  194  A    between atoms: _452  and  _453
REMARK  195  A    between atoms: _452  and  _455
REMARK  196  A    between atoms: _455  and  _456
REMARK  197  A    between atoms: _459  and  _461
REMARK  198  A    between atoms: _461  and  _462
REMARK  199  A    between atoms: _461  and  _464
REMARK  200  A    between atoms: _464  and  _465
REMARK  201  A    between atoms: _467  and  _469
REMARK  202  A    between atoms: _469  and  _470
REMARK  203  A    between atoms: _469  and  _472
REMARK  204  A    between atoms: _472  and  _473
REMARK  205  A    between atoms: _476  and  _478
REMARK  206  A    between atoms: _478  and  _479
REMARK  207  A    between atoms: _478  and  _481
REMARK  208  A    between atoms: _481  and  _482
REMARK  209  A    between atoms: _486  and  MN_638
REMARK  210  A    between atoms: _487  and  _489
REMARK  211  A    between atoms: _489  and  _490
REMARK  212  A    between atoms: _489  and  _492
REMARK  213  A    between atoms: _492  and  _493
REMARK  214  A    between atoms: _493  and  _494
REMARK  215  A    between atoms: _497  and  _499
REMARK  216  A    between atoms: _499  and  _500
REMARK  217  A    between atoms: _499  and  _502
REMARK  218  A    between atoms: _502  and  _503
REMARK  219  A    between atoms: _503  and  _504
REMARK  220  A    between atoms: _504  and  _505
REMARK  221  A    between atoms: _514  and  _516
REMARK  222  A    between atoms: _516  and  _517
REMARK  223  A    between atoms: _516  and  _519
REMARK  224  A    between atoms: _519  and  _520
REMARK  225  A    between atoms: _524  and  MN_638
REMARK  226  A    between atoms: _525  and  _527
REMARK  227  A    between atoms: _527  and  _528
REMARK  228  A    between atoms: _531  and  _532
REMARK  229  A    between atoms: _537  and  _539
REMARK  230  A    between atoms: _539  and  _540
REMARK  231  A    between atoms: _539  and  _542
REMARK  232  A    between atoms: _542  and  _543
REMARK  233  A    between atoms: _546  and  _548
REMARK  234  A    between atoms: _548  and  _549
REMARK  235  A    between atoms: _548  and  _551
REMARK  236  A    between atoms: _551  and  _552
REMARK  237  A    between atoms: _555  and  _557
REMARK  238  A    between atoms: _557  and  _558
REMARK  239  A    between atoms: _557  and  _560
REMARK  240  A    between atoms: _563  and  _564
REMARK  241  A    between atoms: _569  and  _571
REMARK  242  A    between atoms: _571  and  _572
REMARK  243  A    between atoms: _571  and  _574
REMARK  244  A    between atoms: _574  and  _575
REMARK  245  A    between atoms: _578  and  _580
REMARK  246  A    between atoms: _580  and  _581
REMARK  247  A    between atoms: _580  and  _583
REMARK  248  A    between atoms: _583  and  _584
REMARK  249  A    between atoms: _584  and  _585
REMARK  250  A    between atoms: _585  and  _586
REMARK  251  A    between atoms: _586  and  _587
REMARK  252  A    between atoms: _591  and  _593
REMARK  253  A    between atoms: _593  and  _594
REMARK  254  A    between atoms: _593  and  _596
REMARK  255  A    between atoms: _596  and  _597
REMARK  256  A    between atoms: _603  and  _605
REMARK  257  A    between atoms: _605  and  _606
REMARK  258  A    between atoms: _609  and  _611
REMARK  259  A    between atoms: _611  and  _612
REMARK  260  A    between atoms: _611  and  _614
REMARK  261  A    between atoms: _614  and  _615
REMARK  262  A    between atoms: _621  and  _623
REMARK  263  A    between atoms: _623  and  _624
REMARK  264  A    between atoms: _623  and  _626
REMARK  265  A    between atoms: _626  and  _627
REMARK  266  A    between atoms: _627  and  _628
REMARK  267  A    between atoms: _628  and  _629
REMARK                            x       y       z     vdW  Elec       q    Type
REMARK                         _______ _______ _______ _____ _____    ______ ____
ROOT
ATOM      1  C   ILE A   1      98.073 -31.871  44.299  0.00  0.00    +0.000 C 
ATOM      2  N   UNK A   2      98.539 -32.209  45.493  0.00  0.00    +0.000 N 
ATOM      3  H   UNK A   2      97.924 -32.717  46.161  0.00  0.00    +0.000 HD
ATOM      4  O   ILE A   1      98.763 -31.316  43.453  0.00  0.00    +0.000 OA
ENDROOT
BRANCH   1   5
ATOM      5  CA  ILE A   1      96.623 -32.235  43.999  0.00  0.00    +0.000 C 
BRANCH   5   6
ATOM      6  N   ILE A   1      96.388 -33.628  44.338  0.00  0.00    +0.000 NA
ATOM      7  H   ILE A   1      95.682 -33.864  45.064  0.00  0.00    +0.000 HD
ENDBRANCH   5   6
BRANCH   5   8
ATOM      8  CB  ILE A   1      95.664 -31.311  44.764  0.00  0.00    +0.000 C 
ATOM      9  CG2 ILE A   1      96.084 -29.868  44.633  0.00  0.00    +0.000 C 
BRANCH   8  10
ATOM     10  CG1 ILE A   1      94.234 -31.518  44.232  0.00  0.00    +0.000 C 
ATOM     11  CD1 ILE A   1      93.139 -30.947  45.109  0.00  0.00    +0.000 C 
ENDBRANCH   8  10
ENDBRANCH   5   8
ENDBRANCH   1   5
BRANCH   2  12
ATOM     12  C   UNK A   2      99.907 -31.875  45.880  0.00  0.00    +0.000 C 
BRANCH  12  13
ATOM     13  C   UNK A   2     100.970 -32.643  45.090  0.00  0.00    +0.000 C 
ATOM     14  O   UNK A   2     102.042 -32.093  44.808  0.00  0.00    +0.000 OA
ENDBRANCH  12  13
BRANCH  12  15
ATOM     15  C   UNK A   2     100.091 -32.082  47.374  0.00  0.00    +0.000 C 
BRANCH  15  16
ATOM     16  C   UNK A   2      99.227 -31.156  48.207  0.00  0.00    +0.000 C 
BRANCH  16  17
ATOM     17 SE   UNK A   2      99.299 -29.296  47.566  0.00  0.00    +0.000 Se
ATOM     18  C   UNK A   2      97.803 -28.632  48.473  0.00  0.00    +0.000 C 
ENDBRANCH  16  17
ENDBRANCH  15  16
ENDBRANCH  12  15
ENDBRANCH   2  12
TORSDOF 9
REMARK  Name = ../refined-set-2016/2wqp/2wqp_pocket.pdb
REMARK  267 active torsions:
REMARK  status: ('A' for Active; 'I' for Inactive)
REMARK    1  A    between atoms: _1  and  _3
REMARK    2  A    between atoms: _3  and  _4
REMARK    3  A    between atoms: _3  and  _6
REMARK    4  A    between atoms: _6  and  _7
REMARK    5  A    between atoms: _10  and  _12
REMARK    6  A    between atoms: _12  and  _13
REMARK    7  A    between atoms: _12  and  _15
REMARK    8  A    between atoms: _15  and  _16
REMARK    9  A    between atoms: _16  and  _17
REMARK   10  A    between atoms: _20  and  _22
REMARK   11  A    between atoms: _22  and  _23
REMARK   12  A    between atoms: _22  and  _25
REMARK   13  A    between atoms: _25  and  _26
REMARK   14  A    between atoms: _29  and  _31
REMARK   15  A    between atoms: _31  and  _32
REMARK   16  A    between atoms: _34  and  _36
REMARK   17  A    between atoms: _36  and  _37
REMARK   18  A    between atoms: _36  and  _39
REMARK   19  A    between atoms: _39  and  _40
REMARK   20  A    between atoms: _43  and  _45
REMARK   21  A    between atoms: _45  and  _46
REMARK   22  A    between atoms: _45  and  _48
REMARK   23  A    between atoms: _48  and  _49
REMARK   24  A    between atoms: _54  and  _56
REMARK   25  A    between atoms: _56  and  _57
REMARK   26  A    between atoms: _56  and  _59
REMARK   27  A    between atoms: _59  and  _60
REMARK   28  A    between atoms: _60  and  _61
REMARK   29  A    between atoms: _61  and  _62
REMARK   30  A    between atoms: _62  and  _63
REMARK   31  A    between atoms: _67  and  _69
REMARK   32  A    between atoms: _69  and  _70
REMARK   33  A    between atoms: _69  and  _72
REMARK   34  A    between atoms: _72  and  _73
REMARK   35  A    between atoms: _78  and  _80
REMARK   36  A    between atoms: _80  and  _81
REMARK   37  A    between atoms: _80  and  _83
REMARK   38  A    between atoms: _83  and  _84
REMARK   39  A    between atoms: _84  and  _85
REMARK   40  A    between atoms: _90  and  _92
REMARK   41  A    between atoms: _92  and  _93
REMARK   42  A    between atoms: _92  and  _95
REMARK   43  A    between atoms: _95  and  _96
REMARK   44  A    between atoms: _99  and  _101
REMARK   45  A    between atoms: _101  and  _102
REMARK   46  A    between atoms: _101  and  _104
REMARK   47  A    between atoms: _104  and  _105
REMARK   48  A    between atoms: _110  and  _112
REMARK   49  A    between atoms: _112  and  _113
REMARK   50  A    between atoms: _112  and  _115
REMARK   51  A    between atoms: _115  and  _116
REMARK   52  A    between atoms: _116  and  _117
REMARK   53  A    between atoms: _120  and  _122
REMARK   54  A    between atoms: _122  and  _123
REMARK   55  A    between atoms: _122  and  _125
REMARK   56  A    between atoms: _125  and  _126
REMARK   57  A    between atoms: _130  and  _131
REMARK   58  A    between atoms: _136  and  _138
REMARK   59  A    between atoms: _138  and  _139
REMARK   60  A    between atoms: _141  and  _143
REMARK   61  A    between atoms: _143  and  _144
REMARK   62  A    between atoms: _143  and  _146
REMARK   63  A    between atoms: _146  and  _147
REMARK   64  A    between atoms: _152  and  _154
REMARK   65  A    between atoms: _154  and  _155
REMARK   66  A    between atoms: _158  and  _160
REMARK   67  A    between atoms: _160  and  _161
REMARK   68  A    between atoms: _160  and  _163
REMARK   69  A    between atoms: _166  and  _168
REMARK   70  A    between atoms: _168  and  _169
REMARK   71  A    between atoms: _168  and  _171
REMARK   72  A    between atoms: _171  and  _172
REMARK   73  A    between atoms: _174  and  _176
REMARK   74  A    between atoms: _176  and  _177
REMARK   75  A    between atoms: _176  and  _179
REMARK   76  A    between atoms: _179  and  _180
REMARK   77  A    between atoms: _183  and  _185
REMARK   78  A    between atoms: _185  and  _186
REMARK   79  A    between atoms: _185  and  _188
REMARK   80  A    between atoms: _188  and  _189
REMARK   81  A    between atoms: _192  and  _194
REMARK   82  A    between atoms: _194  and  _195
REMARK   83  A    between atoms: _194  and  _197
REMARK   84  A    between atoms: _197  and  _198
REMARK   85  A    between atoms: _198  and  _199
REMARK   86  A    between atoms: _201  and  _203
REMARK   87  A    between atoms: _203  and  _204
REMARK   88  A    between atoms: _203  and  _206
REMARK   89  A    between atoms: _206  and  _207
REMARK   90  A    between atoms: _207  and  _208
REMARK   91  A    between atoms: _208  and  _209
REMARK   92  A    between atoms: _218  and  _220
REMARK   93  A    between atoms: _220  and  _221
REMARK   94  A    between atoms: _220  and  _223
REMARK   95  A    between atoms: _225  and  _227
REMARK   96  A    between atoms: _227  and  _228
REMARK   97  A    between atoms: _227  and  _230
REMARK   98  A    between atoms: _230  and  _231
REMARK   99  A    between atoms: _233  and  _235
REMARK  100  A    between atoms: _235  and  _236
REMARK  101  A    between atoms: _235  and  _238
REMARK  102  A    between atoms: _238  and  _239
REMARK  103  A    between atoms: _242  and  _244
REMARK  104  A    between atoms: _244  and  _245
REMARK  105  A    between atoms: _244  and  _247
REMARK  106  A    between atoms: _247  and  _248
REMARK  107  A    between atoms: _251  and  _253
REMARK  108  A    between atoms: _253  and  _254
REMARK  109  A    between atoms: _253  and  _256
REMARK  110  A    between atoms: _256  and  _257
REMARK  111  A    between atoms: _263  and  _265
REMARK  112  A    between atoms: _265  and  _266
REMARK  113  A    between atoms: _265  and  _268
REMARK  114  A    between atoms: _268  and  _269
REMARK  115  A    between atoms: _269  and  _270
REMARK  116  A    between atoms: _270  and  _271
REMARK  117  A    between atoms: _271  and  _272
REMARK  118  A    between atoms: _276  and  _278
REMARK  119  A    between atoms: _278  and  _279
REMARK  120  A    between atoms: _278  and  _281
REMARK  121  A    between atoms: _281  and  _282
REMARK  122  A    between atoms: _285  and  _287
REMARK  123  A    between atoms: _287  and  _288
REMARK  124  A    between atoms: _290  and  _292
REMARK  125  A    between atoms: _292  and  _293
REMARK  126  A    between atoms: _292  and  _295
REMARK  127  A    between atoms: _295  and  _296
REMARK  128  A    between atoms: _298  and  _300
REMARK  129  A    between atoms: _300  and  _301
REMARK  130  A    between atoms: _303  and  _305
REMARK  131  A    between atoms: _305  and  _306
REMARK  132  A    between atoms: _305  and  _308
REMARK  133  A    between atoms: _308  and  _309
REMARK  134  A    between atoms: _309  and  _310
REMARK  135  A    between atoms: _313  and  _315
REMARK  136  A    between atoms: _315  and  _316
REMARK  137  A    between atoms: _315  and  _318
REMARK  138  A    between atoms: _320  and  _322
REMARK  139  A    between atoms: _322  and  _323
REMARK  140  A    between atoms: _322  and  _325
REMARK  141  A    between atoms: _325  and  _326
REMARK  142  A    between atoms: _329  and  _331
REMARK  143  A    between atoms: _331  and  _332
REMARK  144  A    between atoms: _331  and  _334
REMARK  145  A    between atoms: _334  and  _335
REMARK  146  A    between atoms: _338  and  _340
REMARK  147  A    between atoms: _340  and  _341
REMARK  148  A    between atoms: _340  and  _343
REMARK  149  A    between atoms: _343  and  _344
REMARK  150  A    between atoms: _346  and  _348
REMARK  151  A    between atoms: _348  and  _349
REMARK  152  A    between atoms: _348  and  _351
REMARK  153  A    between atoms: _351  and  _352
REMARK  154  A    between atoms: _355  and  _357
REMARK  155  A    between atoms: _357  and  _358
REMARK  156  A    between atoms: _360  and  _362
REMARK  157  A    between atoms: _362  and  _363
REMARK  158  A    between atoms: _362  and  _365
REMARK  159  A    between atoms: _365  and  _366
REMARK  160  A    between atoms: _366  and  _367
REMARK  161  A    between atoms: _369  and  _371
REMARK  162  A    between atoms: _371  and  _372
REMARK  163  A    between atoms: _371  and  _374
REMARK  164  A    between atoms: _374  and  _375
REMARK  165  A    between atoms: _380  and  _382
REMARK  166  A    between atoms: _382  and  _383
REMARK  167  A    between atoms: _382  and  _385
REMARK  168  A    between atoms: _385  and  _386
REMARK  169  A    between atoms: _389  and  _391
REMARK  170  A    between atoms: _391  and  _392
REMARK  171  A    between atoms: _391  and  _394
REMARK  172  A    between atoms: _394  and  _395
REMARK  173  A    between atoms: _400  and  _402
REMARK  174  A    between atoms: _402  and  _403
REMARK  175  A    between atoms: _402  and  _405
REMARK  176  A    between atoms: _407  and  _409
REMARK  177  A    between atoms: _409  and  _410
REMARK  178  A    between atoms: _409  and  _412
REMARK  179  A    between atoms: _412  and  _413
REMARK  180  A    between atoms: _416  and  _418
REMARK  181  A    between atoms: _418  and  _419
REMARK  182  A    between atoms: _418  and  _421
REMARK  183  A    between atoms: _421  and  _422
REMARK  184  A    between atoms: _427  and  _429
REMARK  185  A    between atoms: _429  and  _430
REMARK  186  A    between atoms: _429  and  _432
REMARK  187  A    between atoms: _432  and  _433
REMARK  188  A    between atoms: _436  and  _438
REMARK  189  A    between atoms: _438  and  _439
REMARK  190  A    between atoms: _438  and  _441
REMARK  191  A    between atoms: _441  and  _442
REMARK  192  A    between atoms: _447  and  _448
REMARK  193  A    between atoms: _450  and  _452
REMARK  194  A    between atoms: _452  and  _453
REMARK  195  A    between atoms: _452  and  _455
REMARK  196  A    between atoms: _455  and  _456
REMARK  197  A    between atoms: _459  and  _461
REMARK  198  A    between atoms: _461  and  _462
REMARK  199  A    between atoms: _461  and  _464
REMARK  200  A    between atoms: _464  and  _465
REMARK  201  A    between atoms: _467  and  _469
REMARK  202  A    between atoms: _469  and  _470
REMARK  203  A    between atoms: _469  and  _472
REMARK  204  A    between atoms: _472  and  _473
REMARK  205  A    between atoms: _476  and  _478
REMARK  206  A    between atoms: _478  and  _479
REMARK  207  A    between atoms: _478  and  _481
REMARK  208  A    between atoms: _481  and  _482
REMARK  209  A    between atoms: _486  and  MN_638
REMARK  210  A    between atoms: _487  and  _489
REMARK  211  A    between atoms: _489  and  _490
REMARK  212  A    between atoms: _489  and  _492
REMARK  213  A    between atoms: _492  and  _493
REMARK  214  A    between atoms: _493  and  _494
REMARK  215  A    between atoms: _497  and  _499
REMARK  216  A    between atoms: _499  and  _500
REMARK  217  A    between atoms: _499  and  _502
REMARK  218  A    between atoms: _502  and  _503
REMARK  219  A    between atoms: _503  and  _504
REMARK  220  A    between atoms: _504  and  _505
REMARK  221  A    between atoms: _514  and  _516
REMARK  222  A    between atoms: _516  and  _517
REMARK  223  A    between atoms: _516  and  _519
REMARK  224  A    between atoms: _519  and  _520
REMARK  225  A    between atoms: _524  and  MN_638
REMARK  226  A    between atoms: _525  and  _527
REMARK  227  A    between atoms: _527  and  _528
REMARK  228  A    between atoms: _531  and  _532
REMARK  229  A    between atoms: _537  and  _539
REMARK  230  A    between atoms: _539  and  _540
REMARK  231  A    between atoms: _539  and  _542
REMARK  232  A    between atoms: _542  and  _543
REMARK  233  A    between atoms: _546  and  _548
REMARK  234  A    between atoms: _548  and  _549
REMARK  235  A    between atoms: _548  and  _551
REMARK  236  A    between atoms: _551  and  _552
REMARK  237  A    between atoms: _555  and  _557
REMARK  238  A    between atoms: _557  and  _558
REMARK  239  A    between atoms: _557  and  _560
REMARK  240  A    between atoms: _563  and  _564
REMARK  241  A    between atoms: _569  and  _571
REMARK  242  A    between atoms: _571  and  _572
REMARK  243  A    between atoms: _571  and  _574
REMARK  244  A    between atoms: _574  and  _575
REMARK  245  A    between atoms: _578  and  _580
REMARK  246  A    between atoms: _580  and  _581
REMARK  247  A    between atoms: _580  and  _583
REMARK  248  A    between atoms: _583  and  _584
REMARK  249  A    between atoms: _584  and  _585
REMARK  250  A    between atoms: _585  and  _586
REMARK  251  A    between atoms: _586  and  _587
REMARK  252  A    between atoms: _591  and  _593
REMARK  253  A    between atoms: _593  and  _594
REMARK  254  A    between atoms: _593  and  _596
REMARK  255  A    between atoms: _596  and  _597
REMARK  256  A    between atoms: _603  and  _605
REMARK  257  A    between atoms: _605  and  _606
REMARK  258  A    between atoms: _609  and  _611
REMARK  259  A    between atoms: _611  and  _612
REMARK  260  A    between atoms: _611  and  _614
REMARK  261  A    between atoms: _614  and  _615
REMARK  262  A    between atoms: _621  and  _623
REMARK  263  A    between atoms: _623  and  _624
REMARK  264  A    between atoms: _623  and  _626
REMARK  265  A    between atoms: _626  and  _627
REMARK  266  A    between atoms: _627  and  _628
REMARK  267  A    between atoms: _628  and  _629
REMARK                            x       y       z     vdW  Elec       q    Type
REMARK                         _______ _______ _______ _____ _____    ______ ____
ROOT
ATOM      1  CA  ARG A   1     100.636 -32.764  40.721  0.00  0.00    +0.145 C 
ENDROOT
BRANCH   1   2
ATOM      2  C   ARG A   1     101.371 -31.404  40.760  0.00  0.00    +0.238 C 
ATOM      3  N   CYS A   2     101.206 -30.647  41.844  0.00  0.00    -0.298 N 
ATOM      4  H   CYS A   2     100.738 -31.057  42.677  0.00  0.00    +0.150 HD
ATOM      5  O   ARG A   1     102.101 -31.070  39.832  0.00  0.00    -0.274 OA
BRANCH   3   6
ATOM      6  CA  CYS A   2     101.662 -29.258  41.901  0.00  0.00    +0.149 C 
BRANCH   6   7
ATOM      7  CB  CYS A   2     100.649 -28.400  42.646  0.00  0.00    +0.096 C 
ATOM      8  SG  CYS A   2      99.079 -28.268  41.821  0.00  0.00    -0.080 S 
ENDBRANCH   6   7
BRANCH   6   9
ATOM      9  C   CYS A   2     103.000 -29.033  42.601  0.00  0.00    +0.228 C 
ATOM     10  O   CYS A   2     103.596 -27.965  42.453  0.00  0.00    -0.286 OA
ENDBRANCH   6   9
ENDBRANCH   3   6
ENDBRANCH   1   2
BRANCH   1  11
ATOM     11  N   ARG A   1     100.687 -33.448  42.003  0.00  0.00    -0.238 NA
ATOM     12  H   ARG A   1      99.813 -33.507  42.564  0.00  0.00    +0.142 HD
ENDBRANCH   1  11
BRANCH   1  13
ATOM     13  CB  ARG A   1      99.163 -32.555  40.326  0.00  0.00    +0.030 C 
BRANCH  13  14
ATOM     14  CG  ARG A   1      98.938 -31.985  38.949  0.00  0.00    +0.045 C 
BRANCH  14  15
ATOM     15  CD  ARG A   1      97.424 -31.844  38.657  0.00  0.00    +0.174 C 
BRANCH  15  16
ATOM     16  NE  ARG A   1      96.841 -30.636  39.251  0.00  0.00    -0.265 N 
ATOM     17  CZ  ARG A   1      95.759 -30.605  40.029  0.00  0.00    +0.342 C 
ATOM     18  NH2 ARG A   1      95.328 -29.446  40.489  0.00  0.00    -0.292 N 
ATOM     19 HH21 ARG A   1      94.485 -29.409  41.097  0.00  0.00    +0.255 HD
ATOM     20 HH22 ARG A   1      95.831 -28.570  40.244  0.00  0.00    +0.255 HD
ATOM     21  NH1 ARG A   1      95.084 -31.709  40.323  0.00  0.00    -0.292 N 
ATOM     22 HH11 ARG A   1      94.243 -31.657  40.932  0.00  0.00    +0.255 HD
ATOM     23 HH12 ARG A   1      95.396 -32.626  39.944  0.00  0.00    +0.255 HD
ATOM     24  HE  ARG A   1      97.310 -29.730  39.049  0.00  0.00    +0.259 HD
ENDBRANCH  15  16
ENDBRANCH  14  15
ENDBRANCH  13  14
ENDBRANCH   1  13
TORSDOF 9
REMARK  Name = ../refined-set-2016/2wqp/2wqp_pocket.pdb
REMARK  267 active torsions:
REMARK  status: ('A' for Active; 'I' for Inactive)
REMARK    1  A    between atoms: _1  and  _3
REMARK    2  A    between atoms: _3  and  _4
REMARK    3  A    between atoms: _3  and  _6
REMARK    4  A    between atoms: _6  and  _7
REMARK    5  A    between atoms: _10  and  _12
REMARK    6  A    between atoms: _12  and  _13
REMARK    7  A    between atoms: _12  and  _15
REMARK    8  A    between atoms: _15  and  _16
REMARK    9  A    between atoms: _16  and  _17
REMARK   10  A    between atoms: _20  and  _22
REMARK   11  A    between atoms: _22  and  _23
REMARK   12  A    between atoms: _22  and  _25
REMARK   13  A    between atoms: _25  and  _26
REMARK   14  A    between atoms: _29  and  _31
REMARK   15  A    between atoms: _31  and  _32
REMARK   16  A    between atoms: _34  and  _36
REMARK   17  A    between atoms: _36  and  _37
REMARK   18  A    between atoms: _36  and  _39
REMARK   19  A    between atoms: _39  and  _40
REMARK   20  A    between atoms: _43  and  _45
REMARK   21  A    between atoms: _45  and  _46
REMARK   22  A    between atoms: _45  and  _48
REMARK   23  A    between atoms: _48  and  _49
REMARK   24  A    between atoms: _54  and  _56
REMARK   25  A    between atoms: _56  and  _57
REMARK   26  A    between atoms: _56  and  _59
REMARK   27  A    between atoms: _59  and  _60
REMARK   28  A    between atoms: _60  and  _61
REMARK   29  A    between atoms: _61  and  _62
REMARK   30  A    between atoms: _62  and  _63
REMARK   31  A    between atoms: _67  and  _69
REMARK   32  A    between atoms: _69  and  _70
REMARK   33  A    between atoms: _69  and  _72
REMARK   34  A    between atoms: _72  and  _73
REMARK   35  A    between atoms: _78  and  _80
REMARK   36  A    between atoms: _80  and  _81
REMARK   37  A    between atoms: _80  and  _83
REMARK   38  A    between atoms: _83  and  _84
REMARK   39  A    between atoms: _84  and  _85
REMARK   40  A    between atoms: _90  and  _92
REMARK   41  A    between atoms: _92  and  _93
REMARK   42  A    between atoms: _92  and  _95
REMARK   43  A    between atoms: _95  and  _96
REMARK   44  A    between atoms: _99  and  _101
REMARK   45  A    between atoms: _101  and  _102
REMARK   46  A    between atoms: _101  and  _104
REMARK   47  A    between atoms: _104  and  _105
REMARK   48  A    between atoms: _110  and  _112
REMARK   49  A    between atoms: _112  and  _113
REMARK   50  A    between atoms: _112  and  _115
REMARK   51  A    between atoms: _115  and  _116
REMARK   52  A    between atoms: _116  and  _117
REMARK   53  A    between atoms: _120  and  _122
REMARK   54  A    between atoms: _122  and  _123
REMARK   55  A    between atoms: _122  and  _125
REMARK   56  A    between atoms: _125  and  _126
REMARK   57  A    between atoms: _130  and  _131
REMARK   58  A    between atoms: _136  and  _138
REMARK   59  A    between atoms: _138  and  _139
REMARK   60  A    between atoms: _141  and  _143
REMARK   61  A    between atoms: _143  and  _144
REMARK   62  A    between atoms: _143  and  _146
REMARK   63  A    between atoms: _146  and  _147
REMARK   64  A    between atoms: _152  and  _154
REMARK   65  A    between atoms: _154  and  _155
REMARK   66  A    between atoms: _158  and  _160
REMARK   67  A    between atoms: _160  and  _161
REMARK   68  A    between atoms: _160  and  _163
REMARK   69  A    between atoms: _166  and  _168
REMARK   70  A    between atoms: _168  and  _169
REMARK   71  A    between atoms: _168  and  _171
REMARK   72  A    between atoms: _171  and  _172
REMARK   73  A    between atoms: _174  and  _176
REMARK   74  A    between atoms: _176  and  _177
REMARK   75  A    between atoms: _176  and  _179
REMARK   76  A    between atoms: _179  and  _180
REMARK   77  A    between atoms: _183  and  _185
REMARK   78  A    between atoms: _185  and  _186
REMARK   79  A    between atoms: _185  and  _188
REMARK   80  A    between atoms: _188  and  _189
REMARK   81  A    between atoms: _192  and  _194
REMARK   82  A    between atoms: _194  and  _195
REMARK   83  A    between atoms: _194  and  _197
REMARK   84  A    between atoms: _197  and  _198
REMARK   85  A    between atoms: _198  and  _199
REMARK   86  A    between atoms: _201  and  _203
REMARK   87  A    between atoms: _203  and  _204
REMARK   88  A    between atoms: _203  and  _206
REMARK   89  A    between atoms: _206  and  _207
REMARK   90  A    between atoms: _207  and  _208
REMARK   91  A    between atoms: _208  and  _209
REMARK   92  A    between atoms: _218  and  _220
REMARK   93  A    between atoms: _220  and  _221
REMARK   94  A    between atoms: _220  and  _223
REMARK   95  A    between atoms: _225  and  _227
REMARK   96  A    between atoms: _227  and  _228
REMARK   97  A    between atoms: _227  and  _230
REMARK   98  A    between atoms: _230  and  _231
REMARK   99  A    between atoms: _233  and  _235
REMARK  100  A    between atoms: _235  and  _236
REMARK  101  A    between atoms: _235  and  _238
REMARK  102  A    between atoms: _238  and  _239
REMARK  103  A    between atoms: _242  and  _244
REMARK  104  A    between atoms: _244  and  _245
REMARK  105  A    between atoms: _244  and  _247
REMARK  106  A    between atoms: _247  and  _248
REMARK  107  A    between atoms: _251  and  _253
REMARK  108  A    between atoms: _253  and  _254
REMARK  109  A    between atoms: _253  and  _256
REMARK  110  A    between atoms: _256  and  _257
REMARK  111  A    between atoms: _263  and  _265
REMARK  112  A    between atoms: _265  and  _266
REMARK  113  A    between atoms: _265  and  _268
REMARK  114  A    between atoms: _268  and  _269
REMARK  115  A    between atoms: _269  and  _270
REMARK  116  A    between atoms: _270  and  _271
REMARK  117  A    between atoms: _271  and  _272
REMARK  118  A    between atoms: _276  and  _278
REMARK  119  A    between atoms: _278  and  _279
REMARK  120  A    between atoms: _278  and  _281
REMARK  121  A    between atoms: _281  and  _282
REMARK  122  A    between atoms: _285  and  _287
REMARK  123  A    between atoms: _287  and  _288
REMARK  124  A    between atoms: _290  and  _292
REMARK  125  A    between atoms: _292  and  _293
REMARK  126  A    between atoms: _292  and  _295
REMARK  127  A    between atoms: _295  and  _296
REMARK  128  A    between atoms: _298  and  _300
REMARK  129  A    between atoms: _300  and  _301
REMARK  130  A    between atoms: _303  and  _305
REMARK  131  A    between atoms: _305  and  _306
REMARK  132  A    between atoms: _305  and  _308
REMARK  133  A    between atoms: _308  and  _309
REMARK  134  A    between atoms: _309  and  _310
REMARK  135  A    between atoms: _313  and  _315
REMARK  136  A    between atoms: _315  and  _316
REMARK  137  A    between atoms: _315  and  _318
REMARK  138  A    between atoms: _320  and  _322
REMARK  139  A    between atoms: _322  and  _323
REMARK  140  A    between atoms: _322  and  _325
REMARK  141  A    between atoms: _325  and  _326
REMARK  142  A    between atoms: _329  and  _331
REMARK  143  A    between atoms: _331  and  _332
REMARK  144  A    between atoms: _331  and  _334
REMARK  145  A    between atoms: _334  and  _335
REMARK  146  A    between atoms: _338  and  _340
REMARK  147  A    between atoms: _340  and  _341
REMARK  148  A    between atoms: _340  and  _343
REMARK  149  A    between atoms: _343  and  _344
REMARK  150  A    between atoms: _346  and  _348
REMARK  151  A    between atoms: _348  and  _349
REMARK  152  A    between atoms: _348  and  _351
REMARK  153  A    between atoms: _351  and  _352
REMARK  154  A    between atoms: _355  and  _357
REMARK  155  A    between atoms: _357  and  _358
REMARK  156  A    between atoms: _360  and  _362
REMARK  157  A    between atoms: _362  and  _363
REMARK  158  A    between atoms: _362  and  _365
REMARK  159  A    between atoms: _365  and  _366
REMARK  160  A    between atoms: _366  and  _367
REMARK  161  A    between atoms: _369  and  _371
REMARK  162  A    between atoms: _371  and  _372
REMARK  163  A    between atoms: _371  and  _374
REMARK  164  A    between atoms: _374  and  _375
REMARK  165  A    between atoms: _380  and  _382
REMARK  166  A    between atoms: _382  and  _383
REMARK  167  A    between atoms: _382  and  _385
REMARK  168  A    between atoms: _385  and  _386
REMARK  169  A    between atoms: _389  and  _391
REMARK  170  A    between atoms: _391  and  _392
REMARK  171  A    between atoms: _391  and  _394
REMARK  172  A    between atoms: _394  and  _395
REMARK  173  A    between atoms: _400  and  _402
REMARK  174  A    between atoms: _402  and  _403
REMARK  175  A    between atoms: _402  and  _405
REMARK  176  A    between atoms: _407  and  _409
REMARK  177  A    between atoms: _409  and  _410
REMARK  178  A    between atoms: _409  and  _412
REMARK  179  A    between atoms: _412  and  _413
REMARK  180  A    between atoms: _416  and  _418
REMARK  181  A    between atoms: _418  and  _419
REMARK  182  A    between atoms: _418  and  _421
REMARK  183  A    between atoms: _421  and  _422
REMARK  184  A    between atoms: _427  and  _429
REMARK  185  A    between atoms: _429  and  _430
REMARK  186  A    between atoms: _429  and  _432
REMARK  187  A    between atoms: _432  and  _433
REMARK  188  A    between atoms: _436  and  _438
REMARK  189  A    between atoms: _438  and  _439
REMARK  190  A    between atoms: _438  and  _441
REMARK  191  A    between atoms: _441  and  _442
REMARK  192  A    between atoms: _447  and  _448
REMARK  193  A    between atoms: _450  and  _452
REMARK  194  A    between atoms: _452  and  _453
REMARK  195  A    between atoms: _452  and  _455
REMARK  196  A    between atoms: _455  and  _456
REMARK  197  A    between atoms: _459  and  _461
REMARK  198  A    between atoms: _461  and  _462
REMARK  199  A    between atoms: _461  and  _464
REMARK  200  A    between atoms: _464  and  _465
REMARK  201  A    between atoms: _467  and  _469
REMARK  202  A    between atoms: _469  and  _470
REMARK  203  A    between atoms: _469  and  _472
REMARK  204  A    between atoms: _472  and  _473
REMARK  205  A    between atoms: _476  and  _478
REMARK  206  A    between atoms: _478  and  _479
REMARK  207  A    between atoms: _478  and  _481
REMARK  208  A    between atoms: _481  and  _482
REMARK  209  A    between atoms: _486  and  MN_638
REMARK  210  A    between atoms: _487  and  _489
REMARK  211  A    between atoms: _489  and  _490
REMARK  212  A    between atoms: _489  and  _492
REMARK  213  A    between atoms: _492  and  _493
REMARK  214  A    between atoms: _493  and  _494
REMARK  215  A    between atoms: _497  and  _499
REMARK  216  A    between atoms: _499  and  _500
REMARK  217  A    between atoms: _499  and  _502
REMARK  218  A    between atoms: _502  and  _503
REMARK  219  A    between atoms: _503  and  _504
REMARK  220  A    between atoms: _504  and  _505
REMARK  221  A    between atoms: _514  and  _516
REMARK  222  A    between atoms: _516  and  _517
REMARK  223  A    between atoms: _516  and  _519
REMARK  224  A    between atoms: _519  and  _520
REMARK  225  A    between atoms: _524  and  MN_638
REMARK  226  A    between atoms: _525  and  _527
REMARK  227  A    between atoms: _527  and  _528
REMARK  228  A    between atoms: _531  and  _532
REMARK  229  A    between atoms: _537  and  _539
REMARK  230  A    between atoms: _539  and  _540
REMARK  231  A    between atoms: _539  and  _542
REMARK  232  A    between atoms: _542  and  _543
REMARK  233  A    between atoms: _546  and  _548
REMARK  234  A    between atoms: _548  and  _549
REMARK  235  A    between atoms: _548  and  _551
REMARK  236  A    between atoms: _551  and  _552
REMARK  237  A    between atoms: _555  and  _557
REMARK  238  A    between atoms: _557  and  _558
REMARK  239  A    between atoms: _557  and  _560
REMARK  240  A    between atoms: _563  and  _564
REMARK  241  A    between atoms: _569  and  _571
REMARK  242  A    between atoms: _571  and  _572
REMARK  243  A    between atoms: _571  and  _574
REMARK  244  A    between atoms: _574  and  _575
REMARK  245  A    between atoms: _578  and  _580
REMARK  246  A    between atoms: _580  and  _581
REMARK  247  A    between atoms: _580  and  _583
REMARK  248  A    between atoms: _583  and  _584
REMARK  249  A    between atoms: _584  and  _585
REMARK  250  A    between atoms: _585  and  _586
REMARK  251  A    between atoms: _586  and  _587
REMARK  252  A    between atoms: _591  and  _593
REMARK  253  A    between atoms: _593  and  _594
REMARK  254  A    between atoms: _593  and  _596
REMARK  255  A    between atoms: _596  and  _597
REMARK  256  A    between atoms: _603  and  _605
REMARK  257  A    between atoms: _605  and  _606
REMARK  258  A    between atoms: _609  and  _611
REMARK  259  A    between atoms: _611  and  _612
REMARK  260  A    between atoms: _611  and  _614
REMARK  261  A    between atoms: _614  and  _615
REMARK  262  A    between atoms: _621  and  _623
REMARK  263  A    between atoms: _623  and  _624
REMARK  264  A    between atoms: _623  and  _626
REMARK  265  A    between atoms: _626  and  _627
REMARK  266  A    between atoms: _627  and  _628
REMARK  267  A    between atoms: _628  and  _629
REMARK                            x       y       z     vdW  Elec       q    Type
REMARK                         _______ _______ _______ _____ _____    ______ ____
ROOT
ATOM      1  C   THR A   2     105.110 -22.941  53.577  0.00  0.00    +0.243 C 
ATOM      2  N   LEU A   3     105.413 -23.426  54.777  0.00  0.00    -0.297 N 
ATOM      3  H   LEU A   3     105.390 -22.791  55.600  0.00  0.00    +0.150 HD
ATOM      4  O   THR A   2     105.210 -23.591  52.550  0.00  0.00    -0.273 OA
ENDROOT
BRANCH   2   5
ATOM      5  CA  LEU A   3     105.776 -24.823  54.970  0.00  0.00    +0.149 C 
BRANCH   5   6
ATOM      6  C   LEU A   3     104.580 -25.579  55.474  0.00  0.00    +0.241 C 
ATOM      7  O   LEU A   3     103.766 -25.028  56.204  0.00  0.00    -0.273 OA
ATOM      8  N   PHE A   4     104.481 -26.849  55.101  0.00  0.00    -0.298 N 
ATOM      9  H   PHE A   4     105.186 -27.248  54.448  0.00  0.00    +0.150 HD
BRANCH   8  10
ATOM     10  CA  PHE A   4     103.405 -27.688  55.590  0.00  0.00    +0.141 C 
BRANCH  10  11
ATOM     11  C   PHE A   4     103.916 -28.927  56.290  0.00  0.00    +0.227 C 
ATOM     12  O   PHE A   4     103.144 -29.818  56.592  0.00  0.00    -0.286 OA
ENDBRANCH  10  11
BRANCH  10  13
ATOM     13  CB  PHE A   4     102.452 -28.060  54.442  0.00  0.00    +0.054 C 
BRANCH  13  14
ATOM     14  CG  PHE A   4     101.857 -26.874  53.765  0.00  0.00    -0.020 A 
ATOM     15  CD2 PHE A   4     100.633 -26.364  54.175  0.00  0.00    -0.004 A 
ATOM     16  CE2 PHE A   4     100.096 -25.244  53.577  0.00  0.00    -0.000 A 
ATOM     17  CZ  PHE A   4     100.762 -24.646  52.530  0.00  0.00    -0.000 A 
ATOM     18  CE1 PHE A   4     101.983 -25.150  52.116  0.00  0.00    -0.000 A 
ATOM     19  CD1 PHE A   4     102.516 -26.251  52.723  0.00  0.00    -0.004 A 
ENDBRANCH  13  14
ENDBRANCH  10  13
ENDBRANCH   8  10
ENDBRANCH   5   6
BRANCH   5  20
ATOM     20  CB  LEU A   3     106.899 -24.964  55.994  0.00  0.00    +0.029 C 
BRANCH  20  21
ATOM     21  CG  LEU A   3     106.515 -24.276  57.303  0.00  0.00    +0.002 C 
ATOM     22  CD2 LEU A   3     106.421 -25.264  58.455  0.00  0.00    +0.000 C 
ATOM     23  CD1 LEU A   3     107.456 -23.154  57.623  0.00  0.00    +0.000 C 
ENDBRANCH  20  21
ENDBRANCH   5  20
ENDBRANCH   2   5
BRANCH   1  24
ATOM     24  CA  THR A   2     104.640 -21.499  53.528  0.00  0.00    +0.176 C 
BRANCH  24  27
ATOM     25  C   SER A   1     106.358 -20.033  52.680  0.00  0.00    +0.241 C 
ATOM     26  O   SER A   1     106.715 -19.690  53.803  0.00  0.00    -0.274 OA
ATOM     27  N   THR A   2     105.338 -20.839  52.458  0.00  0.00    -0.295 N 
ATOM     28  H   THR A   2     105.029 -21.002  51.479  0.00  0.00    +0.150 HD
BRANCH  25  29
ATOM     29  CA  SER A   1     107.071 -19.539  51.442  0.00  0.00    +0.174 C 
BRANCH  29  30
ATOM     30  N   SER A   1     107.898 -18.377  51.717  0.00  0.00    -0.236 NA
ATOM     31  H   SER A   1     108.274 -18.227  52.675  0.00  0.00    +0.142 HD
ENDBRANCH  29  30
BRANCH  29  32
ATOM     32  CB  SER A   1     107.917 -20.668  50.867  0.00  0.00    +0.163 C 
BRANCH  32  33
ATOM     33  OG  SER A   1     107.084 -21.624  50.243  0.00  0.00    -0.380 OA
ATOM     34  H   SER A   1     107.641 -22.354  49.872  0.00  0.00    +0.211 HD
ENDBRANCH  32  33
ENDBRANCH  29  32
ENDBRANCH  25  29
ENDBRANCH  24  27
BRANCH  24  35
ATOM     35  CB  THR A   2     103.123 -21.492  53.288  0.00  0.00    +0.137 C 
ATOM     36  CG2 THR A   2     102.391 -22.071  54.469  0.00  0.00    +0.034 C 
BRANCH  35  37
ATOM     37  OG1 THR A   2     102.673 -20.159  53.068  0.00  0.00    -0.382 OA
ATOM     38  HG1 THR A   2     101.695 -20.163  52.914  0.00  0.00    +0.210 HD
ENDBRANCH  35  37
ENDBRANCH  24  35
ENDBRANCH   1  24
TORSDOF 16
REMARK  Name = ../refined-set-2016/2wqp/2wqp_pocket.pdb
REMARK  267 active torsions:
REMARK  status: ('A' for Active; 'I' for Inactive)
REMARK    1  A    between atoms: _1  and  _3
REMARK    2  A    between atoms: _3  and  _4
REMARK    3  A    between atoms: _3  and  _6
REMARK    4  A    between atoms: _6  and  _7
REMARK    5  A    between atoms: _10  and  _12
REMARK    6  A    between atoms: _12  and  _13
REMARK    7  A    between atoms: _12  and  _15
REMARK    8  A    between atoms: _15  and  _16
REMARK    9  A    between atoms: _16  and  _17
REMARK   10  A    between atoms: _20  and  _22
REMARK   11  A    between atoms: _22  and  _23
REMARK   12  A    between atoms: _22  and  _25
REMARK   13  A    between atoms: _25  and  _26
REMARK   14  A    between atoms: _29  and  _31
REMARK   15  A    between atoms: _31  and  _32
REMARK   16  A    between atoms: _34  and  _36
REMARK   17  A    between atoms: _36  and  _37
REMARK   18  A    between atoms: _36  and  _39
REMARK   19  A    between atoms: _39  and  _40
REMARK   20  A    between atoms: _43  and  _45
REMARK   21  A    between atoms: _45  and  _46
REMARK   22  A    between atoms: _45  and  _48
REMARK   23  A    between atoms: _48  and  _49
REMARK   24  A    between atoms: _54  and  _56
REMARK   25  A    between atoms: _56  and  _57
REMARK   26  A    between atoms: _56  and  _59
REMARK   27  A    between atoms: _59  and  _60
REMARK   28  A    between atoms: _60  and  _61
REMARK   29  A    between atoms: _61  and  _62
REMARK   30  A    between atoms: _62  and  _63
REMARK   31  A    between atoms: _67  and  _69
REMARK   32  A    between atoms: _69  and  _70
REMARK   33  A    between atoms: _69  and  _72
REMARK   34  A    between atoms: _72  and  _73
REMARK   35  A    between atoms: _78  and  _80
REMARK   36  A    between atoms: _80  and  _81
REMARK   37  A    between atoms: _80  and  _83
REMARK   38  A    between atoms: _83  and  _84
REMARK   39  A    between atoms: _84  and  _85
REMARK   40  A    between atoms: _90  and  _92
REMARK   41  A    between atoms: _92  and  _93
REMARK   42  A    between atoms: _92  and  _95
REMARK   43  A    between atoms: _95  and  _96
REMARK   44  A    between atoms: _99  and  _101
REMARK   45  A    between atoms: _101  and  _102
REMARK   46  A    between atoms: _101  and  _104
REMARK   47  A    between atoms: _104  and  _105
REMARK   48  A    between atoms: _110  and  _112
REMARK   49  A    between atoms: _112  and  _113
REMARK   50  A    between atoms: _112  and  _115
REMARK   51  A    between atoms: _115  and  _116
REMARK   52  A    between atoms: _116  and  _117
REMARK   53  A    between atoms: _120  and  _122
REMARK   54  A    between atoms: _122  and  _123
REMARK   55  A    between atoms: _122  and  _125
REMARK   56  A    between atoms: _125  and  _126
REMARK   57  A    between atoms: _130  and  _131
REMARK   58  A    between atoms: _136  and  _138
REMARK   59  A    between atoms: _138  and  _139
REMARK   60  A    between atoms: _141  and  _143
REMARK   61  A    between atoms: _143  and  _144
REMARK   62  A    between atoms: _143  and  _146
REMARK   63  A    between atoms: _146  and  _147
REMARK   64  A    between atoms: _152  and  _154
REMARK   65  A    between atoms: _154  and  _155
REMARK   66  A    between atoms: _158  and  _160
REMARK   67  A    between atoms: _160  and  _161
REMARK   68  A    between atoms: _160  and  _163
REMARK   69  A    between atoms: _166  and  _168
REMARK   70  A    between atoms: _168  and  _169
REMARK   71  A    between atoms: _168  and  _171
REMARK   72  A    between atoms: _171  and  _172
REMARK   73  A    between atoms: _174  and  _176
REMARK   74  A    between atoms: _176  and  _177
REMARK   75  A    between atoms: _176  and  _179
REMARK   76  A    between atoms: _179  and  _180
REMARK   77  A    between atoms: _183  and  _185
REMARK   78  A    between atoms: _185  and  _186
REMARK   79  A    between atoms: _185  and  _188
REMARK   80  A    between atoms: _188  and  _189
REMARK   81  A    between atoms: _192  and  _194
REMARK   82  A    between atoms: _194  and  _195
REMARK   83  A    between atoms: _194  and  _197
REMARK   84  A    between atoms: _197  and  _198
REMARK   85  A    between atoms: _198  and  _199
REMARK   86  A    between atoms: _201  and  _203
REMARK   87  A    between atoms: _203  and  _204
REMARK   88  A    between atoms: _203  and  _206
REMARK   89  A    between atoms: _206  and  _207
REMARK   90  A    between atoms: _207  and  _208
REMARK   91  A    between atoms: _208  and  _209
REMARK   92  A    between atoms: _218  and  _220
REMARK   93  A    between atoms: _220  and  _221
REMARK   94  A    between atoms: _220  and  _223
REMARK   95  A    between atoms: _225  and  _227
REMARK   96  A    between atoms: _227  and  _228
REMARK   97  A    between atoms: _227  and  _230
REMARK   98  A    between atoms: _230  and  _231
REMARK   99  A    between atoms: _233  and  _235
REMARK  100  A    between atoms: _235  and  _236
REMARK  101  A    between atoms: _235  and  _238
REMARK  102  A    between atoms: _238  and  _239
REMARK  103  A    between atoms: _242  and  _244
REMARK  104  A    between atoms: _244  and  _245
REMARK  105  A    between atoms: _244  and  _247
REMARK  106  A    between atoms: _247  and  _248
REMARK  107  A    between atoms: _251  and  _253
REMARK  108  A    between atoms: _253  and  _254
REMARK  109  A    between atoms: _253  and  _256
REMARK  110  A    between atoms: _256  and  _257
REMARK  111  A    between atoms: _263  and  _265
REMARK  112  A    between atoms: _265  and  _266
REMARK  113  A    between atoms: _265  and  _268
REMARK  114  A    between atoms: _268  and  _269
REMARK  115  A    between atoms: _269  and  _270
REMARK  116  A    between atoms: _270  and  _271
REMARK  117  A    between atoms: _271  and  _272
REMARK  118  A    between atoms: _276  and  _278
REMARK  119  A    between atoms: _278  and  _279
REMARK  120  A    between atoms: _278  and  _281
REMARK  121  A    between atoms: _281  and  _282
REMARK  122  A    between atoms: _285  and  _287
REMARK  123  A    between atoms: _287  and  _288
REMARK  124  A    between atoms: _290  and  _292
REMARK  125  A    between atoms: _292  and  _293
REMARK  126  A    between atoms: _292  and  _295
REMARK  127  A    between atoms: _295  and  _296
REMARK  128  A    between atoms: _298  and  _300
REMARK  129  A    between atoms: _300  and  _301
REMARK  130  A    between atoms: _303  and  _305
REMARK  131  A    between atoms: _305  and  _306
REMARK  132  A    between atoms: _305  and  _308
REMARK  133  A    between atoms: _308  and  _309
REMARK  134  A    between atoms: _309  and  _310
REMARK  135  A    between atoms: _313  and  _315
REMARK  136  A    between atoms: _315  and  _316
REMARK  137  A    between atoms: _315  and  _318
REMARK  138  A    between atoms: _320  and  _322
REMARK  139  A    between atoms: _322  and  _323
REMARK  140  A    between atoms: _322  and  _325
REMARK  141  A    between atoms: _325  and  _326
REMARK  142  A    between atoms: _329  and  _331
REMARK  143  A    between atoms: _331  and  _332
REMARK  144  A    between atoms: _331  and  _334
REMARK  145  A    between atoms: _334  and  _335
REMARK  146  A    between atoms: _338  and  _340
REMARK  147  A    between atoms: _340  and  _341
REMARK  148  A    between atoms: _340  and  _343
REMARK  149  A    between atoms: _343  and  _344
REMARK  150  A    between atoms: _346  and  _348
REMARK  151  A    between atoms: _348  and  _349
REMARK  152  A    between atoms: _348  and  _351
REMARK  153  A    between atoms: _351  and  _352
REMARK  154  A    between atoms: _355  and  _357
REMARK  155  A    between atoms: _357  and  _358
REMARK  156  A    between atoms: _360  and  _362
REMARK  157  A    between atoms: _362  and  _363
REMARK  158  A    between atoms: _362  and  _365
REMARK  159  A    between atoms: _365  and  _366
REMARK  160  A    between atoms: _366  and  _367
REMARK  161  A    between atoms: _369  and  _371
REMARK  162  A    between atoms: _371  and  _372
REMARK  163  A    between atoms: _371  and  _374
REMARK  164  A    between atoms: _374  and  _375
REMARK  165  A    between atoms: _380  and  _382
REMARK  166  A    between atoms: _382  and  _383
REMARK  167  A    between atoms: _382  and  _385
REMARK  168  A    between atoms: _385  and  _386
REMARK  169  A    between atoms: _389  and  _391
REMARK  170  A    between atoms: _391  and  _392
REMARK  171  A    between atoms: _391  and  _394
REMARK  172  A    between atoms: _394  and  _395
REMARK  173  A    between atoms: _400  and  _402
REMARK  174  A    between atoms: _402  and  _403
REMARK  175  A    between atoms: _402  and  _405
REMARK  176  A    between atoms: _407  and  _409
REMARK  177  A    between atoms: _409  and  _410
REMARK  178  A    between atoms: _409  and  _412
REMARK  179  A    between atoms: _412  and  _413
REMARK  180  A    between atoms: _416  and  _418
REMARK  181  A    between atoms: _418  and  _419
REMARK  182  A    between atoms: _418  and  _421
REMARK  183  A    between atoms: _421  and  _422
REMARK  184  A    between atoms: _427  and  _429
REMARK  185  A    between atoms: _429  and  _430
REMARK  186  A    between atoms: _429  and  _432
REMARK  187  A    between atoms: _432  and  _433
REMARK  188  A    between atoms: _436  and  _438
REMARK  189  A    between atoms: _438  and  _439
REMARK  190  A    between atoms: _438  and  _441
REMARK  191  A    between atoms: _441  and  _442
REMARK  192  A    between atoms: _447  and  _448
REMARK  193  A    between atoms: _450  and  _452
REMARK  194  A    between atoms: _452  and  _453
REMARK  195  A    between atoms: _452  and  _455
REMARK  196  A    between atoms: _455  and  _456
REMARK  197  A    between atoms: _459  and  _461
REMARK  198  A    between atoms: _461  and  _462
REMARK  199  A    between atoms: _461  and  _464
REMARK  200  A    between atoms: _464  and  _465
REMARK  201  A    between atoms: _467  and  _469
REMARK  202  A    between atoms: _469  and  _470
REMARK  203  A    between atoms: _469  and  _472
REMARK  204  A    between atoms: _472  and  _473
REMARK  205  A    between atoms: _476  and  _478
REMARK  206  A    between atoms: _478  and  _479
REMARK  207  A    between atoms: _478  and  _481
REMARK  208  A    between atoms: _481  and  _482
REMARK  209  A    between atoms: _486  and  MN_638
REMARK  210  A    between atoms: _487  and  _489
REMARK  211  A    between atoms: _489  and  _490
REMARK  212  A    between atoms: _489  and  _492
REMARK  213  A    between atoms: _492  and  _493
REMARK  214  A    between atoms: _493  and  _494
REMARK  215  A    between atoms: _497  and  _499
REMARK  216  A    between atoms: _499  and  _500
REMARK  217  A    between atoms: _499  and  _502
REMARK  218  A    between atoms: _502  and  _503
REMARK  219  A    between atoms: _503  and  _504
REMARK  220  A    between atoms: _504  and  _505
REMARK  221  A    between atoms: _514  and  _516
REMARK  222  A    between atoms: _516  and  _517
REMARK  223  A    between atoms: _516  and  _519
REMARK  224  A    between atoms: _519  and  _520
REMARK  225  A    between atoms: _524  and  MN_638
REMARK  226  A    between atoms: _525  and  _527
REMARK  227  A    between atoms: _527  and  _528
REMARK  228  A    between atoms: _531  and  _532
REMARK  229  A    between atoms: _537  and  _539
REMARK  230  A    between atoms: _539  and  _540
REMARK  231  A    between atoms: _539  and  _542
REMARK  232  A    between atoms: _542  and  _543
REMARK  233  A    between atoms: _546  and  _548
REMARK  234  A    between atoms: _548  and  _549
REMARK  235  A    between atoms: _548  and  _551
REMARK  236  A    between atoms: _551  and  _552
REMARK  237  A    between atoms: _555  and  _557
REMARK  238  A    between atoms: _557  and  _558
REMARK  239  A    between atoms: _557  and  _560
REMARK  240  A    between atoms: _563  and  _564
REMARK  241  A    between atoms: _569  and  _571
REMARK  242  A    between atoms: _571  and  _572
REMARK  243  A    between atoms: _571  and  _574
REMARK  244  A    between atoms: _574  and  _575
REMARK  245  A    between atoms: _578  and  _580
REMARK  246  A    between atoms: _580  and  _581
REMARK  247  A    between atoms: _580  and  _583
REMARK  248  A    between atoms: _583  and  _584
REMARK  249  A    between atoms: _584  and  _585
REMARK  250  A    between atoms: _585  and  _586
REMARK  251  A    between atoms: _586  and  _587
REMARK  252  A    between atoms: _591  and  _593
REMARK  253  A    between atoms: _593  and  _594
REMARK  254  A    between atoms: _593  and  _596
REMARK  255  A    between atoms: _596  and  _597
REMARK  256  A    between atoms: _603  and  _605
REMARK  257  A    between atoms: _605  and  _606
REMARK  258  A    between atoms: _609  and  _611
REMARK  259  A    between atoms: _611  and  _612
REMARK  260  A    between atoms: _611  and  _614
REMARK  261  A    between atoms: _614  and  _615
REMARK  262  A    between atoms: _621  and  _623
REMARK  263  A    between atoms: _623  and  _624
REMARK  264  A    between atoms: _623  and  _626
REMARK  265  A    between atoms: _626  and  _627
REMARK  266  A    between atoms: _627  and  _628
REMARK  267  A    between atoms: _628  and  _629
REMARK                            x       y       z     vdW  Elec       q    Type
REMARK                         _______ _______ _______ _____ _____    ______ ____
ROOT
ATOM      1  C   GLY A   3      98.140 -21.630  58.050  0.00  0.00    +0.243 C 
ATOM      2  O   GLY A   3      98.459 -22.170  59.107  0.00  0.00    -0.273 OA
ATOM      3  N   SER A   4      96.891 -21.285  57.772  0.00  0.00    -0.295 N 
ATOM      4  H   SER A   4      96.669 -20.890  56.836  0.00  0.00    +0.150 HD
ENDROOT
BRANCH   3   5
ATOM      5  CA  SER A   4      95.818 -21.447  58.752  0.00  0.00    +0.178 C 
BRANCH   5   6
ATOM      6  C   SER A   4      95.662 -22.907  59.169  0.00  0.00    +0.243 C 
ATOM      7  O   SER A   4      95.297 -23.202  60.293  0.00  0.00    -0.273 OA
ATOM      8  N   GLY A   5      95.927 -23.827  58.250  0.00  0.00    -0.295 N 
ATOM      9  H   GLY A   5      96.206 -23.530  57.293  0.00  0.00    +0.150 HD
BRANCH   8  10
ATOM     10  CA  GLY A   5      95.834 -25.233  58.558  0.00  0.00    +0.176 C 
BRANCH  10  11
ATOM     11  C   GLY A   5      96.832 -25.671  59.619  0.00  0.00    +0.243 C 
ATOM     12  O   GLY A   5      96.582 -26.639  60.349  0.00  0.00    -0.273 OA
ATOM     13  N   GLU A   6      97.953 -24.960  59.711  0.00  0.00    -0.297 N 
ATOM     14  H   GLU A   6      98.081 -24.141  59.083  0.00  0.00    +0.150 HD
BRANCH  13  15
ATOM     15  CA  GLU A   6      99.015 -25.291  60.667  0.00  0.00    +0.149 C 
BRANCH  15  16
ATOM     16  C   GLU A   6      99.043 -24.367  61.886  0.00  0.00    +0.241 C 
ATOM     17  O   GLU A   6      99.941 -24.481  62.728  0.00  0.00    -0.273 OA
ATOM     18  N   CYS A   7      98.075 -23.459  61.976  0.00  0.00    -0.297 N 
ATOM     19  H   CYS A   7      97.337 -23.432  61.244  0.00  0.00    +0.150 HD
BRANCH  18  20
ATOM     20  CA  CYS A   7      98.021 -22.501  63.073  0.00  0.00    +0.149 C 
BRANCH  20  21
ATOM     21  C   CYS A   7      97.946 -23.233  64.435  0.00  0.00    +0.228 C 
ATOM     22  O   CYS A   7      98.490 -22.758  65.436  0.00  0.00    -0.286 OA
ENDBRANCH  20  21
BRANCH  20  23
ATOM     23  CB  CYS A   7      96.836 -21.559  62.893  0.00  0.00    +0.096 C 
ATOM     24  SG  CYS A   7      96.699 -20.292  64.157  0.00  0.00    -0.080 S 
ENDBRANCH  20  23
ENDBRANCH  18  20
ENDBRANCH  15  16
BRANCH  15  25
ATOM     25  CB  GLU A   6     100.389 -25.247  60.001  0.00  0.00    +0.041 C 
BRANCH  25  26
ATOM     26  CG  GLU A   6     100.625 -26.324  58.969  0.00  0.00    +0.116 C 
BRANCH  26  27
ATOM     27  CD  GLU A   6      99.594 -26.290  57.862  0.00  0.00    +0.365 C 
ATOM     28  OE2 GLU A   6      98.829 -27.275  57.742  0.00  0.00    -0.246 OA
ATOM     29  OE1 GLU A   6      99.549 -25.265  57.131  0.00  0.00    -0.246 OA
ENDBRANCH  26  27
ENDBRANCH  25  26
ENDBRANCH  15  25
ENDBRANCH  13  15
ENDBRANCH  10  11
ENDBRANCH   8  10
ENDBRANCH   5   6
BRANCH   5  30
ATOM     30  CB  SER A   4      94.506 -20.927  58.174  0.00  0.00    +0.166 C 
BRANCH  30  31
ATOM     31  OG  SER A   4      94.561 -19.530  57.947  0.00  0.00    -0.380 OA
ATOM     32  H   SER A   4      95.289 -19.329  57.307  0.00  0.00    +0.211 HD
ENDBRANCH  30  31
ENDBRANCH   5  30
ENDBRANCH   3   5
BRANCH   1  33
ATOM     33  CA  GLY A   3      99.160 -21.312  56.985  0.00  0.00    +0.176 C 
BRANCH  33  36
ATOM     34  C   ILE A   2     101.043 -20.406  58.239  0.00  0.00    +0.241 C 
ATOM     35  O   ILE A   2     100.407 -19.420  58.601  0.00  0.00    -0.273 OA
ATOM     36  N   GLY A   3     100.548 -21.322  57.416  0.00  0.00    -0.295 N 
ATOM     37  H   GLY A   3     101.176 -22.074  57.067  0.00  0.00    +0.150 HD
BRANCH  34  38
ATOM     38  CA  ILE A   2     102.498 -20.586  58.614  0.00  0.00    +0.148 C 
BRANCH  38  40
ATOM     39  C   LYS A   1     104.119 -19.485  57.174  0.00  0.00    +0.238 C 
ATOM     40  N   ILE A   2     103.205 -19.430  58.140  0.00  0.00    -0.297 N 
ATOM     41  H   ILE A   2     102.993 -18.508  58.571  0.00  0.00    +0.150 HD
ATOM     42  O   LYS A   1     104.576 -20.543  56.724  0.00  0.00    -0.274 OA
BRANCH  39  43
ATOM     43  CA  LYS A   1     104.597 -18.131  56.644  0.00  0.00    +0.145 C 
BRANCH  43  44
ATOM     44  N   LYS A   1     106.047 -18.151  56.563  0.00  0.00    -0.238 NA
ATOM     45  H   LYS A   1     106.506 -18.540  55.715  0.00  0.00    +0.142 HD
ENDBRANCH  43  44
BRANCH  43  46
ATOM     46  CB  LYS A   1     103.995 -17.823  55.277  0.00  0.00    +0.026 C 
BRANCH  46  47
ATOM     47  CG  LYS A   1     102.453 -17.892  55.198  0.00  0.00    -0.000 C 
BRANCH  47  48
ATOM     48  CD  LYS A   1     101.786 -16.643  55.684  0.00  0.00    -0.024 C 
BRANCH  48  49
ATOM     49  CE  LYS A   1     100.292 -16.858  55.952  0.00  0.00    -0.086 C 
BRANCH  49  50
ATOM     50  NZ  LYS A   1      99.506 -17.141  54.718  0.00  0.00    +0.380 N 
ATOM     51  HZ1 LYS A   1      98.506 -17.276  54.969  0.00  0.00    -0.089 HD
ATOM     52  HZ2 LYS A   1      99.871 -18.004  54.266  0.00  0.00    -0.089 HD
ATOM     53  HZ3 LYS A   1      99.595 -16.340  54.061  0.00  0.00    -0.089 HD
ENDBRANCH  49  50
ENDBRANCH  48  49
ENDBRANCH  47  48
ENDBRANCH  46  47
ENDBRANCH  43  46
ENDBRANCH  39  43
ENDBRANCH  38  40
BRANCH  38  54
ATOM     54  CB  ILE A   2     102.664 -20.781  60.133  0.00  0.00    +0.027 C 
ATOM     55  CG2 ILE A   2     101.850 -21.963  60.587  0.00  0.00    +0.002 C 
BRANCH  54  56
ATOM     56  CG1 ILE A   2     104.152 -20.978  60.460  0.00  0.00    +0.002 C 
ATOM     57  CD1 ILE A   2     104.418 -21.157  61.913  0.00  0.00    +0.000 C 
ENDBRANCH  54  56
ENDBRANCH  38  54
ENDBRANCH  34  38
ENDBRANCH  33  36
ENDBRANCH   1  33
TORSDOF 27
REMARK  Name = ../refined-set-2016/2wqp/2wqp_pocket.pdb
REMARK  267 active torsions:
REMARK  status: ('A' for Active; 'I' for Inactive)
REMARK    1  A    between atoms: _1  and  _3
REMARK    2  A    between atoms: _3  and  _4
REMARK    3  A    between atoms: _3  and  _6
REMARK    4  A    between atoms: _6  and  _7
REMARK    5  A    between atoms: _10  and  _12
REMARK    6  A    between atoms: _12  and  _13
REMARK    7  A    between atoms: _12  and  _15
REMARK    8  A    between atoms: _15  and  _16
REMARK    9  A    between atoms: _16  and  _17
REMARK   10  A    between atoms: _20  and  _22
REMARK   11  A    between atoms: _22  and  _23
REMARK   12  A    between atoms: _22  and  _25
REMARK   13  A    between atoms: _25  and  _26
REMARK   14  A    between atoms: _29  and  _31
REMARK   15  A    between atoms: _31  and  _32
REMARK   16  A    between atoms: _34  and  _36
REMARK   17  A    between atoms: _36  and  _37
REMARK   18  A    between atoms: _36  and  _39
REMARK   19  A    between atoms: _39  and  _40
REMARK   20  A    between atoms: _43  and  _45
REMARK   21  A    between atoms: _45  and  _46
REMARK   22  A    between atoms: _45  and  _48
REMARK   23  A    between atoms: _48  and  _49
REMARK   24  A    between atoms: _54  and  _56
REMARK   25  A    between atoms: _56  and  _57
REMARK   26  A    between atoms: _56  and  _59
REMARK   27  A    between atoms: _59  and  _60
REMARK   28  A    between atoms: _60  and  _61
REMARK   29  A    between atoms: _61  and  _62
REMARK   30  A    between atoms: _62  and  _63
REMARK   31  A    between atoms: _67  and  _69
REMARK   32  A    between atoms: _69  and  _70
REMARK   33  A    between atoms: _69  and  _72
REMARK   34  A    between atoms: _72  and  _73
REMARK   35  A    between atoms: _78  and  _80
REMARK   36  A    between atoms: _80  and  _81
REMARK   37  A    between atoms: _80  and  _83
REMARK   38  A    between atoms: _83  and  _84
REMARK   39  A    between atoms: _84  and  _85
REMARK   40  A    between atoms: _90  and  _92
REMARK   41  A    between atoms: _92  and  _93
REMARK   42  A    between atoms: _92  and  _95
REMARK   43  A    between atoms: _95  and  _96
REMARK   44  A    between atoms: _99  and  _101
REMARK   45  A    between atoms: _101  and  _102
REMARK   46  A    between atoms: _101  and  _104
REMARK   47  A    between atoms: _104  and  _105
REMARK   48  A    between atoms: _110  and  _112
REMARK   49  A    between atoms: _112  and  _113
REMARK   50  A    between atoms: _112  and  _115
REMARK   51  A    between atoms: _115  and  _116
REMARK   52  A    between atoms: _116  and  _117
REMARK   53  A    between atoms: _120  and  _122
REMARK   54  A    between atoms: _122  and  _123
REMARK   55  A    between atoms: _122  and  _125
REMARK   56  A    between atoms: _125  and  _126
REMARK   57  A    between atoms: _130  and  _131
REMARK   58  A    between atoms: _136  and  _138
REMARK   59  A    between atoms: _138  and  _139
REMARK   60  A    between atoms: _141  and  _143
REMARK   61  A    between atoms: _143  and  _144
REMARK   62  A    between atoms: _143  and  _146
REMARK   63  A    between atoms: _146  and  _147
REMARK   64  A    between atoms: _152  and  _154
REMARK   65  A    between atoms: _154  and  _155
REMARK   66  A    between atoms: _158  and  _160
REMARK   67  A    between atoms: _160  and  _161
REMARK   68  A    between atoms: _160  and  _163
REMARK   69  A    between atoms: _166  and  _168
REMARK   70  A    between atoms: _168  and  _169
REMARK   71  A    between atoms: _168  and  _171
REMARK   72  A    between atoms: _171  and  _172
REMARK   73  A    between atoms: _174  and  _176
REMARK   74  A    between atoms: _176  and  _177
REMARK   75  A    between atoms: _176  and  _179
REMARK   76  A    between atoms: _179  and  _180
REMARK   77  A    between atoms: _183  and  _185
REMARK   78  A    between atoms: _185  and  _186
REMARK   79  A    between atoms: _185  and  _188
REMARK   80  A    between atoms: _188  and  _189
REMARK   81  A    between atoms: _192  and  _194
REMARK   82  A    between atoms: _194  and  _195
REMARK   83  A    between atoms: _194  and  _197
REMARK   84  A    between atoms: _197  and  _198
REMARK   85  A    between atoms: _198  and  _199
REMARK   86  A    between atoms: _201  and  _203
REMARK   87  A    between atoms: _203  and  _204
REMARK   88  A    between atoms: _203  and  _206
REMARK   89  A    between atoms: _206  and  _207
REMARK   90  A    between atoms: _207  and  _208
REMARK   91  A    between atoms: _208  and  _209
REMARK   92  A    between atoms: _218  and  _220
REMARK   93  A    between atoms: _220  and  _221
REMARK   94  A    between atoms: _220  and  _223
REMARK   95  A    between atoms: _225  and  _227
REMARK   96  A    between atoms: _227  and  _228
REMARK   97  A    between atoms: _227  and  _230
REMARK   98  A    between atoms: _230  and  _231
REMARK   99  A    between atoms: _233  and  _235
REMARK  100  A    between atoms: _235  and  _236
REMARK  101  A    between atoms: _235  and  _238
REMARK  102  A    between atoms: _238  and  _239
REMARK  103  A    between atoms: _242  and  _244
REMARK  104  A    between atoms: _244  and  _245
REMARK  105  A    between atoms: _244  and  _247
REMARK  106  A    between atoms: _247  and  _248
REMARK  107  A    between atoms: _251  and  _253
REMARK  108  A    between atoms: _253  and  _254
REMARK  109  A    between atoms: _253  and  _256
REMARK  110  A    between atoms: _256  and  _257
REMARK  111  A    between atoms: _263  and  _265
REMARK  112  A    between atoms: _265  and  _266
REMARK  113  A    between atoms: _265  and  _268
REMARK  114  A    between atoms: _268  and  _269
REMARK  115  A    between atoms: _269  and  _270
REMARK  116  A    between atoms: _270  and  _271
REMARK  117  A    between atoms: _271  and  _272
REMARK  118  A    between atoms: _276  and  _278
REMARK  119  A    between atoms: _278  and  _279
REMARK  120  A    between atoms: _278  and  _281
REMARK  121  A    between atoms: _281  and  _282
REMARK  122  A    between atoms: _285  and  _287
REMARK  123  A    between atoms: _287  and  _288
REMARK  124  A    between atoms: _290  and  _292
REMARK  125  A    between atoms: _292  and  _293
REMARK  126  A    between atoms: _292  and  _295
REMARK  127  A    between atoms: _295  and  _296
REMARK  128  A    between atoms: _298  and  _300
REMARK  129  A    between atoms: _300  and  _301
REMARK  130  A    between atoms: _303  and  _305
REMARK  131  A    between atoms: _305  and  _306
REMARK  132  A    between atoms: _305  and  _308
REMARK  133  A    between atoms: _308  and  _309
REMARK  134  A    between atoms: _309  and  _310
REMARK  135  A    between atoms: _313  and  _315
REMARK  136  A    between atoms: _315  and  _316
REMARK  137  A    between atoms: _315  and  _318
REMARK  138  A    between atoms: _320  and  _322
REMARK  139  A    between atoms: _322  and  _323
REMARK  140  A    between atoms: _322  and  _325
REMARK  141  A    between atoms: _325  and  _326
REMARK  142  A    between atoms: _329  and  _331
REMARK  143  A    between atoms: _331  and  _332
REMARK  144  A    between atoms: _331  and  _334
REMARK  145  A    between atoms: _334  and  _335
REMARK  146  A    between atoms: _338  and  _340
REMARK  147  A    between atoms: _340  and  _341
REMARK  148  A    between atoms: _340  and  _343
REMARK  149  A    between atoms: _343  and  _344
REMARK  150  A    between atoms: _346  and  _348
REMARK  151  A    between atoms: _348  and  _349
REMARK  152  A    between atoms: _348  and  _351
REMARK  153  A    between atoms: _351  and  _352
REMARK  154  A    between atoms: _355  and  _357
REMARK  155  A    between atoms: _357  and  _358
REMARK  156  A    between atoms: _360  and  _362
REMARK  157  A    between atoms: _362  and  _363
REMARK  158  A    between atoms: _362  and  _365
REMARK  159  A    between atoms: _365  and  _366
REMARK  160  A    between atoms: _366  and  _367
REMARK  161  A    between atoms: _369  and  _371
REMARK  162  A    between atoms: _371  and  _372
REMARK  163  A    between atoms: _371  and  _374
REMARK  164  A    between atoms: _374  and  _375
REMARK  165  A    between atoms: _380  and  _382
REMARK  166  A    between atoms: _382  and  _383
REMARK  167  A    between atoms: _382  and  _385
REMARK  168  A    between atoms: _385  and  _386
REMARK  169  A    between atoms: _389  and  _391
REMARK  170  A    between atoms: _391  and  _392
REMARK  171  A    between atoms: _391  and  _394
REMARK  172  A    between atoms: _394  and  _395
REMARK  173  A    between atoms: _400  and  _402
REMARK  174  A    between atoms: _402  and  _403
REMARK  175  A    between atoms: _402  and  _405
REMARK  176  A    between atoms: _407  and  _409
REMARK  177  A    between atoms: _409  and  _410
REMARK  178  A    between atoms: _409  and  _412
REMARK  179  A    between atoms: _412  and  _413
REMARK  180  A    between atoms: _416  and  _418
REMARK  181  A    between atoms: _418  and  _419
REMARK  182  A    between atoms: _418  and  _421
REMARK  183  A    between atoms: _421  and  _422
REMARK  184  A    between atoms: _427  and  _429
REMARK  185  A    between atoms: _429  and  _430
REMARK  186  A    between atoms: _429  and  _432
REMARK  187  A    between atoms: _432  and  _433
REMARK  188  A    between atoms: _436  and  _438
REMARK  189  A    between atoms: _438  and  _439
REMARK  190  A    between atoms: _438  and  _441
REMARK  191  A    between atoms: _441  and  _442
REMARK  192  A    between atoms: _447  and  _448
REMARK  193  A    between atoms: _450  and  _452
REMARK  194  A    between atoms: _452  and  _453
REMARK  195  A    between atoms: _452  and  _455
REMARK  196  A    between atoms: _455  and  _456
REMARK  197  A    between atoms: _459  and  _461
REMARK  198  A    between atoms: _461  and  _462
REMARK  199  A    between atoms: _461  and  _464
REMARK  200  A    between atoms: _464  and  _465
REMARK  201  A    between atoms: _467  and  _469
REMARK  202  A    between atoms: _469  and  _470
REMARK  203  A    between atoms: _469  and  _472
REMARK  204  A    between atoms: _472  and  _473
REMARK  205  A    between atoms: _476  and  _478
REMARK  206  A    between atoms: _478  and  _479
REMARK  207  A    between atoms: _478  and  _481
REMARK  208  A    between atoms: _481  and  _482
REMARK  209  A    between atoms: _486  and  MN_638
REMARK  210  A    between atoms: _487  and  _489
REMARK  211  A    between atoms: _489  and  _490
REMARK  212  A    between atoms: _489  and  _492
REMARK  213  A    between atoms: _492  and  _493
REMARK  214  A    between atoms: _493  and  _494
REMARK  215  A    between atoms: _497  and  _499
REMARK  216  A    between atoms: _499  and  _500
REMARK  217  A    between atoms: _499  and  _502
REMARK  218  A    between atoms: _502  and  _503
REMARK  219  A    between atoms: _503  and  _504
REMARK  220  A    between atoms: _504  and  _505
REMARK  221  A    between atoms: _514  and  _516
REMARK  222  A    between atoms: _516  and  _517
REMARK  223  A    between atoms: _516  and  _519
REMARK  224  A    between atoms: _519  and  _520
REMARK  225  A    between atoms: _524  and  MN_638
REMARK  226  A    between atoms: _525  and  _527
REMARK  227  A    between atoms: _527  and  _528
REMARK  228  A    between atoms: _531  and  _532
REMARK  229  A    between atoms: _537  and  _539
REMARK  230  A    between atoms: _539  and  _540
REMARK  231  A    between atoms: _539  and  _542
REMARK  232  A    between atoms: _542  and  _543
REMARK  233  A    between atoms: _546  and  _548
REMARK  234  A    between atoms: _548  and  _549
REMARK  235  A    between atoms: _548  and  _551
REMARK  236  A    between atoms: _551  and  _552
REMARK  237  A    between atoms: _555  and  _557
REMARK  238  A    between atoms: _557  and  _558
REMARK  239  A    between atoms: _557  and  _560
REMARK  240  A    between atoms: _563  and  _564
REMARK  241  A    between atoms: _569  and  _571
REMARK  242  A    between atoms: _571  and  _572
REMARK  243  A    between atoms: _571  and  _574
REMARK  244  A    between atoms: _574  and  _575
REMARK  245  A    between atoms: _578  and  _580
REMARK  246  A    between atoms: _580  and  _581
REMARK  247  A    between atoms: _580  and  _583
REMARK  248  A    between atoms: _583  and  _584
REMARK  249  A    between atoms: _584  and  _585
REMARK  250  A    between atoms: _585  and  _586
REMARK  251  A    between atoms: _586  and  _587
REMARK  252  A    between atoms: _591  and  _593
REMARK  253  A    between atoms: _593  and  _594
REMARK  254  A    between atoms: _593  and  _596
REMARK  255  A    between atoms: _596  and  _597
REMARK  256  A    between atoms: _603  and  _605
REMARK  257  A    between atoms: _605  and  _606
REMARK  258  A    between atoms: _609  and  _611
REMARK  259  A    between atoms: _611  and  _612
REMARK  260  A    between atoms: _611  and  _614
REMARK  261  A    between atoms: _614  and  _615
REMARK  262  A    between atoms: _621  and  _623
REMARK  263  A    between atoms: _623  and  _624
REMARK  264  A    between atoms: _623  and  _626
REMARK  265  A    between atoms: _626  and  _627
REMARK  266  A    between atoms: _627  and  _628
REMARK  267  A    between atoms: _628  and  _629
REMARK                            x       y       z     vdW  Elec       q    Type
REMARK                         _______ _______ _______ _____ _____    ______ ____
ROOT
ATOM      1  CA  THR A   4      94.723 -17.751  61.783  0.00  0.00    +0.000 C 
ENDROOT
BRANCH   1   4
ATOM      2  C   SER A   3      96.686 -17.777  60.412  0.00  0.00    +0.000 C 
ATOM      3  O   SER A   3      97.099 -18.802  60.952  0.00  0.00    +0.000 OA
ATOM      4  N   THR A   4      95.488 -17.277  60.655  0.00  0.00    +0.000 N 
ATOM      5  H   THR A   4      95.096 -16.541  60.033  0.00  0.00    +0.000 HD
BRANCH   2   6
ATOM      6  CA  SER A   3      97.515 -17.046  59.396  0.00  0.00    +0.000 C 
BRANCH   6   9
ATOM      7  C   LEU A   2      99.487 -16.388  60.665  0.00  0.00    +0.000 C 
ATOM      8  O   LEU A   2      98.906 -15.423  61.172  0.00  0.00    +0.000 OA
ATOM      9  N   SER A   3      98.925 -17.186  59.748  0.00  0.00    +0.000 N 
ATOM     10  H   SER A   3      99.501 -17.915  59.280  0.00  0.00    +0.000 HD
BRANCH   7  11
ATOM     11  CA  LEU A   2     100.922 -16.692  61.055  0.00  0.00    +0.000 C 
BRANCH  11  13
ATOM     12  C   ILE A   1     102.713 -15.754  59.731  0.00  0.00    +0.000 C 
ATOM     13  N   LEU A   2     101.811 -15.606  60.688  0.00  0.00    +0.000 N 
ATOM     14  H   LEU A   2     101.738 -14.696  61.185  0.00  0.00    +0.000 HD
ATOM     15  O   ILE A   1     102.795 -16.785  59.038  0.00  0.00    +0.000 OA
BRANCH  12  16
ATOM     16  CA  ILE A   1     103.680 -14.587  59.551  0.00  0.00    +0.000 C 
BRANCH  16  17
ATOM     17  N   ILE A   1     104.982 -15.089  59.932  0.00  0.00    +0.000 NA
ATOM     18  H   ILE A   1     105.477 -15.736  59.286  0.00  0.00    +0.000 HD
ENDBRANCH  16  17
BRANCH  16  19
ATOM     19  CB  ILE A   1     103.654 -14.066  58.106  0.00  0.00    +0.000 C 
ATOM     20  CG2 ILE A   1     102.271 -13.534  57.719  0.00  0.00    +0.000 C 
BRANCH  19  21
ATOM     21  CG1 ILE A   1     104.678 -12.956  57.916  0.00  0.00    +0.000 C 
ATOM     22  CD1 ILE A   1     104.990 -12.724  56.448  0.00  0.00    +0.000 C 
ENDBRANCH  19  21
ENDBRANCH  16  19
ENDBRANCH  12  16
ENDBRANCH  11  13
BRANCH  11  23
ATOM     23  CB  LEU A   2     101.006 -16.955  62.549  0.00  0.00    +0.000 C 
BRANCH  23  24
ATOM     24  CG  LEU A   2      99.990 -17.947  63.109  0.00  0.00    +0.000 C 
ATOM     25  CD2 LEU A   2     100.042 -17.925  64.620  0.00  0.00    +0.000 C 
ATOM     26  CD1 LEU A   2     100.244 -19.341  62.559  0.00  0.00    +0.000 C 
ENDBRANCH  23  24
ENDBRANCH  11  23
ENDBRANCH   7  11
ENDBRANCH   6   9
BRANCH   6  27
ATOM     27  CB  SER A   3      97.184 -17.598  57.997  0.00  0.00    +0.000 C 
BRANCH  27  28
ATOM     28  OG  SER A   3      97.422 -16.642  56.983  0.00  0.00    +0.000 OA
ATOM     29  H   SER A   3      97.198 -17.034  56.102  0.00  0.00    +0.000 HD
ENDBRANCH  27  28
ENDBRANCH   6  27
ENDBRANCH   2   6
ENDBRANCH   1   4
BRANCH   1  30
ATOM     30  C   THR A   4      93.310 -18.197  61.426  0.00  0.00    +0.000 C 
ATOM     31  O   THR A   4      92.459 -18.294  62.303  0.00  0.00    +0.000 OA
ATOM     32  N   GLY A   5      93.047 -18.495  60.155  0.00  0.00    +0.000 N 
ATOM     33  H   GLY A   5      93.758 -18.304  59.421  0.00  0.00    +0.000 HD
BRANCH  32  34
ATOM     34  CA  GLY A   5      91.758 -19.092  59.786  0.00  0.00    +0.000 C 
BRANCH  34  35
ATOM     35  C   GLY A   5      91.463 -20.367  60.567  0.00  0.00    +0.000 C 
ATOM     36  O   GLY A   5      92.374 -21.036  61.021  0.00  0.00    +0.000 OA
ATOM     37  N   UNK A   6      90.183 -20.670  60.770  0.00  0.00    +0.000 N 
ATOM     38  H   UNK A   6      89.457 -19.980  60.489  0.00  0.00    +0.000 HD
BRANCH  37  39
ATOM     39  C   UNK A   6      89.754 -21.930  61.371  0.00  0.00    +0.000 C 
BRANCH  39  40
ATOM     40  C   UNK A   6      90.141 -22.093  62.829  0.00  0.00    +0.000 C 
ATOM     41  N   ASN A   7      90.632 -21.019  63.455  0.00  0.00    +0.000 N 
ATOM     42  H   ASN A   7      90.641 -20.108  62.953  0.00  0.00    +0.000 HD
ATOM     43  O   UNK A   6      89.989 -23.177  63.372  0.00  0.00    +0.000 OA
BRANCH  41  44
ATOM     44  CA  ASN A   7      91.154 -21.075  64.812  0.00  0.00    +0.000 C 
BRANCH  44  45
ATOM     45  C   ASN A   7      90.609 -19.958  65.712  0.00  0.00    +0.000 C 
ATOM     46  O   ASN A   7      90.453 -18.820  65.297  0.00  0.00    +0.000 OA
ENDBRANCH  44  45
BRANCH  44  47
ATOM     47  CB  ASN A   7      92.678 -20.980  64.817  0.00  0.00    +0.000 C 
BRANCH  47  48
ATOM     48  CG  ASN A   7      93.340 -22.280  64.466  0.00  0.00    +0.000 C 
ATOM     49  OD1 ASN A   7      93.630 -23.096  65.349  0.00  0.00    +0.000 OA
ATOM     50  ND2 ASN A   7      93.549 -22.510  63.169  0.00  0.00    +0.000 N 
ATOM     51 HD21 ASN A   7      93.974 -23.408  62.862  0.00  0.00    +0.000 HD
ATOM     52 HD22 ASN A   7      93.287 -21.791  62.465  0.00  0.00    +0.000 HD
ENDBRANCH  47  48
ENDBRANCH  44  47
ENDBRANCH  41  44
ENDBRANCH  39  40
BRANCH  39  53
ATOM     53  C   UNK A   6      90.307 -23.115  60.554  0.00  0.00    +0.000 C 
BRANCH  53  54
ATOM     54  C   UNK A   6      89.817 -23.110  59.119  0.00  0.00    +0.000 C 
BRANCH  54  55
ATOM     55 SE   UNK A   6      90.564 -24.501  57.994  0.00  0.00    +0.000 Se
ATOM     56  C   UNK A   6      92.388 -23.893  57.827  0.00  0.00    +0.000 C 
ENDBRANCH  54  55
ENDBRANCH  53  54
ENDBRANCH  39  53
ENDBRANCH  37  39
ENDBRANCH  34  35
ENDBRANCH  32  34
ENDBRANCH   1  30
BRANCH   1  57
ATOM     57  CB  THR A   4      94.647 -16.654  62.869  0.00  0.00    +0.000 C 
ATOM     58  CG2 THR A   4      96.064 -16.197  63.312  0.00  0.00    +0.000 C 
BRANCH  57  59
ATOM     59  OG1 THR A   4      93.900 -15.539  62.370  0.00  0.00    +0.000 OA
ATOM     60  HG1 THR A   4      94.348 -15.177  61.565  0.00  0.00    +0.000 HD
ENDBRANCH  57  59
ENDBRANCH   1  57
TORSDOF 27
REMARK  Name = ../refined-set-2016/2wqp/2wqp_pocket.pdb
REMARK  267 active torsions:
REMARK  status: ('A' for Active; 'I' for Inactive)
REMARK    1  A    between atoms: _1  and  _3
REMARK    2  A    between atoms: _3  and  _4
REMARK    3  A    between atoms: _3  and  _6
REMARK    4  A    between atoms: _6  and  _7
REMARK    5  A    between atoms: _10  and  _12
REMARK    6  A    between atoms: _12  and  _13
REMARK    7  A    between atoms: _12  and  _15
REMARK    8  A    between atoms: _15  and  _16
REMARK    9  A    between atoms: _16  and  _17
REMARK   10  A    between atoms: _20  and  _22
REMARK   11  A    between atoms: _22  and  _23
REMARK   12  A    between atoms: _22  and  _25
REMARK   13  A    between atoms: _25  and  _26
REMARK   14  A    between atoms: _29  and  _31
REMARK   15  A    between atoms: _31  and  _32
REMARK   16  A    between atoms: _34  and  _36
REMARK   17  A    between atoms: _36  and  _37
REMARK   18  A    between atoms: _36  and  _39
REMARK   19  A    between atoms: _39  and  _40
REMARK   20  A    between atoms: _43  and  _45
REMARK   21  A    between atoms: _45  and  _46
REMARK   22  A    between atoms: _45  and  _48
REMARK   23  A    between atoms: _48  and  _49
REMARK   24  A    between atoms: _54  and  _56
REMARK   25  A    between atoms: _56  and  _57
REMARK   26  A    between atoms: _56  and  _59
REMARK   27  A    between atoms: _59  and  _60
REMARK   28  A    between atoms: _60  and  _61
REMARK   29  A    between atoms: _61  and  _62
REMARK   30  A    between atoms: _62  and  _63
REMARK   31  A    between atoms: _67  and  _69
REMARK   32  A    between atoms: _69  and  _70
REMARK   33  A    between atoms: _69  and  _72
REMARK   34  A    between atoms: _72  and  _73
REMARK   35  A    between atoms: _78  and  _80
REMARK   36  A    between atoms: _80  and  _81
REMARK   37  A    between atoms: _80  and  _83
REMARK   38  A    between atoms: _83  and  _84
REMARK   39  A    between atoms: _84  and  _85
REMARK   40  A    between atoms: _90  and  _92
REMARK   41  A    between atoms: _92  and  _93
REMARK   42  A    between atoms: _92  and  _95
REMARK   43  A    between atoms: _95  and  _96
REMARK   44  A    between atoms: _99  and  _101
REMARK   45  A    between atoms: _101  and  _102
REMARK   46  A    between atoms: _101  and  _104
REMARK   47  A    between atoms: _104  and  _105
REMARK   48  A    between atoms: _110  and  _112
REMARK   49  A    between atoms: _112  and  _113
REMARK   50  A    between atoms: _112  and  _115
REMARK   51  A    between atoms: _115  and  _116
REMARK   52  A    between atoms: _116  and  _117
REMARK   53  A    between atoms: _120  and  _122
REMARK   54  A    between atoms: _122  and  _123
REMARK   55  A    between atoms: _122  and  _125
REMARK   56  A    between atoms: _125  and  _126
REMARK   57  A    between atoms: _130  and  _131
REMARK   58  A    between atoms: _136  and  _138
REMARK   59  A    between atoms: _138  and  _139
REMARK   60  A    between atoms: _141  and  _143
REMARK   61  A    between atoms: _143  and  _144
REMARK   62  A    between atoms: _143  and  _146
REMARK   63  A    between atoms: _146  and  _147
REMARK   64  A    between atoms: _152  and  _154
REMARK   65  A    between atoms: _154  and  _155
REMARK   66  A    between atoms: _158  and  _160
REMARK   67  A    between atoms: _160  and  _161
REMARK   68  A    between atoms: _160  and  _163
REMARK   69  A    between atoms: _166  and  _168
REMARK   70  A    between atoms: _168  and  _169
REMARK   71  A    between atoms: _168  and  _171
REMARK   72  A    between atoms: _171  and  _172
REMARK   73  A    between atoms: _174  and  _176
REMARK   74  A    between atoms: _176  and  _177
REMARK   75  A    between atoms: _176  and  _179
REMARK   76  A    between atoms: _179  and  _180
REMARK   77  A    between atoms: _183  and  _185
REMARK   78  A    between atoms: _185  and  _186
REMARK   79  A    between atoms: _185  and  _188
REMARK   80  A    between atoms: _188  and  _189
REMARK   81  A    between atoms: _192  and  _194
REMARK   82  A    between atoms: _194  and  _195
REMARK   83  A    between atoms: _194  and  _197
REMARK   84  A    between atoms: _197  and  _198
REMARK   85  A    between atoms: _198  and  _199
REMARK   86  A    between atoms: _201  and  _203
REMARK   87  A    between atoms: _203  and  _204
REMARK   88  A    between atoms: _203  and  _206
REMARK   89  A    between atoms: _206  and  _207
REMARK   90  A    between atoms: _207  and  _208
REMARK   91  A    between atoms: _208  and  _209
REMARK   92  A    between atoms: _218  and  _220
REMARK   93  A    between atoms: _220  and  _221
REMARK   94  A    between atoms: _220  and  _223
REMARK   95  A    between atoms: _225  and  _227
REMARK   96  A    between atoms: _227  and  _228
REMARK   97  A    between atoms: _227  and  _230
REMARK   98  A    between atoms: _230  and  _231
REMARK   99  A    between atoms: _233  and  _235
REMARK  100  A    between atoms: _235  and  _236
REMARK  101  A    between atoms: _235  and  _238
REMARK  102  A    between atoms: _238  and  _239
REMARK  103  A    between atoms: _242  and  _244
REMARK  104  A    between atoms: _244  and  _245
REMARK  105  A    between atoms: _244  and  _247
REMARK  106  A    between atoms: _247  and  _248
REMARK  107  A    between atoms: _251  and  _253
REMARK  108  A    between atoms: _253  and  _254
REMARK  109  A    between atoms: _253  and  _256
REMARK  110  A    between atoms: _256  and  _257
REMARK  111  A    between atoms: _263  and  _265
REMARK  112  A    between atoms: _265  and  _266
REMARK  113  A    between atoms: _265  and  _268
REMARK  114  A    between atoms: _268  and  _269
REMARK  115  A    between atoms: _269  and  _270
REMARK  116  A    between atoms: _270  and  _271
REMARK  117  A    between atoms: _271  and  _272
REMARK  118  A    between atoms: _276  and  _278
REMARK  119  A    between atoms: _278  and  _279
REMARK  120  A    between atoms: _278  and  _281
REMARK  121  A    between atoms: _281  and  _282
REMARK  122  A    between atoms: _285  and  _287
REMARK  123  A    between atoms: _287  and  _288
REMARK  124  A    between atoms: _290  and  _292
REMARK  125  A    between atoms: _292  and  _293
REMARK  126  A    between atoms: _292  and  _295
REMARK  127  A    between atoms: _295  and  _296
REMARK  128  A    between atoms: _298  and  _300
REMARK  129  A    between atoms: _300  and  _301
REMARK  130  A    between atoms: _303  and  _305
REMARK  131  A    between atoms: _305  and  _306
REMARK  132  A    between atoms: _305  and  _308
REMARK  133  A    between atoms: _308  and  _309
REMARK  134  A    between atoms: _309  and  _310
REMARK  135  A    between atoms: _313  and  _315
REMARK  136  A    between atoms: _315  and  _316
REMARK  137  A    between atoms: _315  and  _318
REMARK  138  A    between atoms: _320  and  _322
REMARK  139  A    between atoms: _322  and  _323
REMARK  140  A    between atoms: _322  and  _325
REMARK  141  A    between atoms: _325  and  _326
REMARK  142  A    between atoms: _329  and  _331
REMARK  143  A    between atoms: _331  and  _332
REMARK  144  A    between atoms: _331  and  _334
REMARK  145  A    between atoms: _334  and  _335
REMARK  146  A    between atoms: _338  and  _340
REMARK  147  A    between atoms: _340  and  _341
REMARK  148  A    between atoms: _340  and  _343
REMARK  149  A    between atoms: _343  and  _344
REMARK  150  A    between atoms: _346  and  _348
REMARK  151  A    between atoms: _348  and  _349
REMARK  152  A    between atoms: _348  and  _351
REMARK  153  A    between atoms: _351  and  _352
REMARK  154  A    between atoms: _355  and  _357
REMARK  155  A    between atoms: _357  and  _358
REMARK  156  A    between atoms: _360  and  _362
REMARK  157  A    between atoms: _362  and  _363
REMARK  158  A    between atoms: _362  and  _365
REMARK  159  A    between atoms: _365  and  _366
REMARK  160  A    between atoms: _366  and  _367
REMARK  161  A    between atoms: _369  and  _371
REMARK  162  A    between atoms: _371  and  _372
REMARK  163  A    between atoms: _371  and  _374
REMARK  164  A    between atoms: _374  and  _375
REMARK  165  A    between atoms: _380  and  _382
REMARK  166  A    between atoms: _382  and  _383
REMARK  167  A    between atoms: _382  and  _385
REMARK  168  A    between atoms: _385  and  _386
REMARK  169  A    between atoms: _389  and  _391
REMARK  170  A    between atoms: _391  and  _392
REMARK  171  A    between atoms: _391  and  _394
REMARK  172  A    between atoms: _394  and  _395
REMARK  173  A    between atoms: _400  and  _402
REMARK  174  A    between atoms: _402  and  _403
REMARK  175  A    between atoms: _402  and  _405
REMARK  176  A    between atoms: _407  and  _409
REMARK  177  A    between atoms: _409  and  _410
REMARK  178  A    between atoms: _409  and  _412
REMARK  179  A    between atoms: _412  and  _413
REMARK  180  A    between atoms: _416  and  _418
REMARK  181  A    between atoms: _418  and  _419
REMARK  182  A    between atoms: _418  and  _421
REMARK  183  A    between atoms: _421  and  _422
REMARK  184  A    between atoms: _427  and  _429
REMARK  185  A    between atoms: _429  and  _430
REMARK  186  A    between atoms: _429  and  _432
REMARK  187  A    between atoms: _432  and  _433
REMARK  188  A    between atoms: _436  and  _438
REMARK  189  A    between atoms: _438  and  _439
REMARK  190  A    between atoms: _438  and  _441
REMARK  191  A    between atoms: _441  and  _442
REMARK  192  A    between atoms: _447  and  _448
REMARK  193  A    between atoms: _450  and  _452
REMARK  194  A    between atoms: _452  and  _453
REMARK  195  A    between atoms: _452  and  _455
REMARK  196  A    between atoms: _455  and  _456
REMARK  197  A    between atoms: _459  and  _461
REMARK  198  A    between atoms: _461  and  _462
REMARK  199  A    between atoms: _461  and  _464
REMARK  200  A    between atoms: _464  and  _465
REMARK  201  A    between atoms: _467  and  _469
REMARK  202  A    between atoms: _469  and  _470
REMARK  203  A    between atoms: _469  and  _472
REMARK  204  A    between atoms: _472  and  _473
REMARK  205  A    between atoms: _476  and  _478
REMARK  206  A    between atoms: _478  and  _479
REMARK  207  A    between atoms: _478  and  _481
REMARK  208  A    between atoms: _481  and  _482
REMARK  209  A    between atoms: _486  and  MN_638
REMARK  210  A    between atoms: _487  and  _489
REMARK  211  A    between atoms: _489  and  _490
REMARK  212  A    between atoms: _489  and  _492
REMARK  213  A    between atoms: _492  and  _493
REMARK  214  A    between atoms: _493  and  _494
REMARK  215  A    between atoms: _497  and  _499
REMARK  216  A    between atoms: _499  and  _500
REMARK  217  A    between atoms: _499  and  _502
REMARK  218  A    between atoms: _502  and  _503
REMARK  219  A    between atoms: _503  and  _504
REMARK  220  A    between atoms: _504  and  _505
REMARK  221  A    between atoms: _514  and  _516
REMARK  222  A    between atoms: _516  and  _517
REMARK  223  A    between atoms: _516  and  _519
REMARK  224  A    between atoms: _519  and  _520
REMARK  225  A    between atoms: _524  and  MN_638
REMARK  226  A    between atoms: _525  and  _527
REMARK  227  A    between atoms: _527  and  _528
REMARK  228  A    between atoms: _531  and  _532
REMARK  229  A    between atoms: _537  and  _539
REMARK  230  A    between atoms: _539  and  _540
REMARK  231  A    between atoms: _539  and  _542
REMARK  232  A    between atoms: _542  and  _543
REMARK  233  A    between atoms: _546  and  _548
REMARK  234  A    between atoms: _548  and  _549
REMARK  235  A    between atoms: _548  and  _551
REMARK  236  A    between atoms: _551  and  _552
REMARK  237  A    between atoms: _555  and  _557
REMARK  238  A    between atoms: _557  and  _558
REMARK  239  A    between atoms: _557  and  _560
REMARK  240  A    between atoms: _563  and  _564
REMARK  241  A    between atoms: _569  and  _571
REMARK  242  A    between atoms: _571  and  _572
REMARK  243  A    between atoms: _571  and  _574
REMARK  244  A    between atoms: _574  and  _575
REMARK  245  A    between atoms: _578  and  _580
REMARK  246  A    between atoms: _580  and  _581
REMARK  247  A    between atoms: _580  and  _583
REMARK  248  A    between atoms: _583  and  _584
REMARK  249  A    between atoms: _584  and  _585
REMARK  250  A    between atoms: _585  and  _586
REMARK  251  A    between atoms: _586  and  _587
REMARK  252  A    between atoms: _591  and  _593
REMARK  253  A    between atoms: _593  and  _594
REMARK  254  A    between atoms: _593  and  _596
REMARK  255  A    between atoms: _596  and  _597
REMARK  256  A    between atoms: _603  and  _605
REMARK  257  A    between atoms: _605  and  _606
REMARK  258  A    between atoms: _609  and  _611
REMARK  259  A    between atoms: _611  and  _612
REMARK  260  A    between atoms: _611  and  _614
REMARK  261  A    between atoms: _614  and  _615
REMARK  262  A    between atoms: _621  and  _623
REMARK  263  A    between atoms: _623  and  _624
REMARK  264  A    between atoms: _623  and  _626
REMARK  265  A    between atoms: _626  and  _627
REMARK  266  A    between atoms: _627  and  _628
REMARK  267  A    between atoms: _628  and  _629
REMARK                            x       y       z     vdW  Elec       q    Type
REMARK                         _______ _______ _______ _____ _____    ______ ____
ROOT
ATOM      1  C   THR A   4      89.056 -18.361  55.125  0.00  0.00    +0.243 C 
ATOM      2  N   ASN A   5      89.035 -19.671  55.355  0.00  0.00    -0.297 N 
ATOM      3  H   ASN A   5      88.609 -20.030  56.233  0.00  0.00    +0.150 HD
ATOM      4  O   THR A   4      89.354 -17.890  54.034  0.00  0.00    -0.273 OA
ENDROOT
BRANCH   2   5
ATOM      5  CA  ASN A   5      89.599 -20.610  54.396  0.00  0.00    +0.158 C 
BRANCH   5   6
ATOM      6  C   ASN A   5      88.530 -21.362  53.649  0.00  0.00    +0.241 C 
ATOM      7  O   ASN A   5      88.391 -22.573  53.792  0.00  0.00    -0.273 OA
ATOM      8  N   ILE A   6      87.761 -20.601  52.869  0.00  0.00    -0.297 N 
ATOM      9  H   ILE A   6      87.819 -19.569  52.984  0.00  0.00    +0.150 HD
BRANCH   8  10
ATOM     10  CA  ILE A   6      86.847 -21.126  51.869  0.00  0.00    +0.149 C 
BRANCH  10  11
ATOM     11  C   ILE A   6      87.306 -20.554  50.521  0.00  0.00    +0.241 C 
ATOM     12  O   ILE A   6      87.633 -19.371  50.422  0.00  0.00    -0.273 OA
ATOM     13  N   TYR A   7      87.366 -21.398  49.499  0.00  0.00    -0.298 N 
ATOM     14  H   TYR A   7      87.001 -22.365  49.615  0.00  0.00    +0.150 HD
BRANCH  13  15
ATOM     15  CA  TYR A   7      87.931 -20.998  48.222  0.00  0.00    +0.141 C 
BRANCH  15  16
ATOM     16  C   TYR A   7      86.898 -21.074  47.113  0.00  0.00    +0.227 C 
ATOM     17  O   TYR A   7      86.681 -22.134  46.527  0.00  0.00    -0.286 OA
ENDBRANCH  15  16
BRANCH  15  18
ATOM     18  CB  TYR A   7      89.117 -21.877  47.897  0.00  0.00    +0.054 C 
BRANCH  18  19
ATOM     19  CG  TYR A   7      90.151 -21.902  49.004  0.00  0.00    -0.020 A 
ATOM     20  CD2 TYR A   7      89.980 -22.706  50.125  0.00  0.00    -0.001 A 
ATOM     21  CE2 TYR A   7      90.911 -22.743  51.124  0.00  0.00    +0.036 A 
ATOM     22  CZ  TYR A   7      92.035 -21.956  51.022  0.00  0.00    +0.134 A 
ATOM     23  CE1 TYR A   7      92.231 -21.159  49.922  0.00  0.00    +0.036 A 
ATOM     24  CD1 TYR A   7      91.295 -21.134  48.924  0.00  0.00    -0.001 A 
BRANCH  22  25
ATOM     25  OH  TYR A   7      92.985 -21.969  52.005  0.00  0.00    -0.506 OA
ATOM     26  HH  TYR A   7      93.847 -22.274  51.625  0.00  0.00    +0.292 HD
ENDBRANCH  22  25
ENDBRANCH  18  19
ENDBRANCH  15  18
ENDBRANCH  13  15
ENDBRANCH  10  11
BRANCH  10  27
ATOM     27  CB  ILE A   6      85.407 -20.717  52.155  0.00  0.00    +0.027 C 
ATOM     28  CG2 ILE A   6      84.437 -21.492  51.253  0.00  0.00    +0.002 C 
BRANCH  27  29
ATOM     29  CG1 ILE A   6      85.074 -20.967  53.622  0.00  0.00    +0.002 C 
ATOM     30  CD1 ILE A   6      83.846 -20.255  54.092  0.00  0.00    +0.000 C 
ENDBRANCH  27  29
ENDBRANCH  10  27
ENDBRANCH   8  10
ENDBRANCH   5   6
BRANCH   5  31
ATOM     31  CB  ASN A   5      90.573 -21.582  55.080  0.00  0.00    +0.114 C 
BRANCH  31  32
ATOM     32  CG  ASN A   5      91.750 -20.869  55.709  0.00  0.00    +0.222 C 
ATOM     33  OD1 ASN A   5      91.676 -20.397  56.854  0.00  0.00    -0.275 OA
ATOM     34  ND2 ASN A   5      92.858 -20.798  54.971  0.00  0.00    -0.329 N 
ATOM     35 HD21 ASN A   5      93.707 -20.332  55.351  0.00  0.00    +0.145 HD
ATOM     36 HD22 ASN A   5      92.874 -21.208  54.015  0.00  0.00    +0.145 HD
ENDBRANCH  31  32
ENDBRANCH   5  31
ENDBRANCH   2   5
BRANCH   1  37
ATOM     37  CA  THR A   4      88.709 -17.433  56.309  0.00  0.00    +0.176 C 
BRANCH  37  40
ATOM     38  C   CYS A   3      90.411 -16.179  57.531  0.00  0.00    +0.242 C 
ATOM     39  O   CYS A   3      89.998 -16.522  58.624  0.00  0.00    -0.273 OA
ATOM     40  N   THR A   4      89.798 -16.483  56.392  0.00  0.00    -0.295 N 
ATOM     41  H   THR A   4      90.116 -16.016  55.519  0.00  0.00    +0.150 HD
BRANCH  38  42
ATOM     42  CA  CYS A   3      91.671 -15.333  57.418  0.00  0.00    +0.160 C 
BRANCH  42  44
ATOM     43  C   HIS A   2      92.675 -13.524  58.664  0.00  0.00    +0.241 C 
ATOM     44  N   CYS A   3      91.846 -14.551  58.643  0.00  0.00    -0.296 N 
ATOM     45  H   CYS A   3      91.315 -14.806  59.500  0.00  0.00    +0.150 HD
ATOM     46  O   HIS A   2      93.249 -13.118  57.667  0.00  0.00    -0.273 OA
BRANCH  43  47
ATOM     47  CA  HIS A   2      92.951 -12.884  60.020  0.00  0.00    +0.155 C 
BRANCH  47  50
ATOM     48  C   LEU A   1      95.338 -13.181  59.879  0.00  0.00    +0.238 C 
ATOM     49  O   LEU A   1      95.250 -14.393  60.069  0.00  0.00    -0.274 OA
ATOM     50  N   HIS A   2      94.296 -12.371  59.961  0.00  0.00    -0.297 N 
ATOM     51  H   HIS A   2      94.451 -11.343  59.983  0.00  0.00    +0.150 HD
BRANCH  48  52
ATOM     52  CA  LEU A   1      96.682 -12.543  59.574  0.00  0.00    +0.145 C 
BRANCH  52  53
ATOM     53  N   LEU A   1      97.609 -12.916  60.638  0.00  0.00    -0.238 NA
ATOM     54  H   LEU A   1      98.007 -13.877  60.665  0.00  0.00    +0.142 HD
ENDBRANCH  52  53
BRANCH  52  55
ATOM     55  CB  LEU A   1      97.182 -13.033  58.212  0.00  0.00    +0.026 C 
BRANCH  55  56
ATOM     56  CG  LEU A   1      98.622 -12.724  57.828  0.00  0.00    +0.002 C 
ATOM     57  CD2 LEU A   1      98.919 -11.238  58.007  0.00  0.00    +0.000 C 
ATOM     58  CD1 LEU A   1      98.885 -13.198  56.380  0.00  0.00    +0.000 C 
ENDBRANCH  55  56
ENDBRANCH  52  55
ENDBRANCH  48  52
ENDBRANCH  47  50
BRANCH  47  59
ATOM     59  CB  HIS A   2      91.977 -11.761  60.299  0.00  0.00    +0.076 C 
BRANCH  59  60
ATOM     60  CG  HIS A   2      90.540 -12.187  60.300  0.00  0.00    +0.082 A 
ATOM     61  ND1 HIS A   2      90.095 -13.336  60.923  0.00  0.00    -0.227 NA
ATOM     62  CE1 HIS A   2      88.786 -13.447  60.755  0.00  0.00    +0.199 A 
ATOM     63  NE2 HIS A   2      88.363 -12.389  60.086  0.00  0.00    -0.221 NA
ATOM     64  CD2 HIS A   2      89.443 -11.598  59.773  0.00  0.00    +0.115 A 
ENDBRANCH  59  60
ENDBRANCH  47  59
ENDBRANCH  43  47
ENDBRANCH  42  44
BRANCH  42  65
ATOM     65  CB  CYS A   3      92.895 -16.222  57.210  0.00  0.00    +0.098 C 
ATOM     66  SG  CYS A   3      92.898 -17.150  55.635  0.00  0.00    -0.080 S 
ENDBRANCH  42  65
ENDBRANCH  38  42
ENDBRANCH  37  40
BRANCH  37  67
ATOM     67  CB  THR A   4      87.373 -16.722  56.063  0.00  0.00    +0.137 C 
ATOM     68  CG2 THR A   4      86.238 -17.719  55.862  0.00  0.00    +0.034 C 
BRANCH  67  69
ATOM     69  OG1 THR A   4      87.069 -15.866  57.177  0.00  0.00    -0.382 OA
ATOM     70  HG1 THR A   4      87.787 -15.192  57.279  0.00  0.00    +0.210 HD
ENDBRANCH  67  69
ENDBRANCH  37  67
ENDBRANCH   1  37
TORSDOF 28
REMARK  Name = ../refined-set-2016/2wqp/2wqp_pocket.pdb
REMARK  267 active torsions:
REMARK  status: ('A' for Active; 'I' for Inactive)
REMARK    1  A    between atoms: _1  and  _3
REMARK    2  A    between atoms: _3  and  _4
REMARK    3  A    between atoms: _3  and  _6
REMARK    4  A    between atoms: _6  and  _7
REMARK    5  A    between atoms: _10  and  _12
REMARK    6  A    between atoms: _12  and  _13
REMARK    7  A    between atoms: _12  and  _15
REMARK    8  A    between atoms: _15  and  _16
REMARK    9  A    between atoms: _16  and  _17
REMARK   10  A    between atoms: _20  and  _22
REMARK   11  A    between atoms: _22  and  _23
REMARK   12  A    between atoms: _22  and  _25
REMARK   13  A    between atoms: _25  and  _26
REMARK   14  A    between atoms: _29  and  _31
REMARK   15  A    between atoms: _31  and  _32
REMARK   16  A    between atoms: _34  and  _36
REMARK   17  A    between atoms: _36  and  _37
REMARK   18  A    between atoms: _36  and  _39
REMARK   19  A    between atoms: _39  and  _40
REMARK   20  A    between atoms: _43  and  _45
REMARK   21  A    between atoms: _45  and  _46
REMARK   22  A    between atoms: _45  and  _48
REMARK   23  A    between atoms: _48  and  _49
REMARK   24  A    between atoms: _54  and  _56
REMARK   25  A    between atoms: _56  and  _57
REMARK   26  A    between atoms: _56  and  _59
REMARK   27  A    between atoms: _59  and  _60
REMARK   28  A    between atoms: _60  and  _61
REMARK   29  A    between atoms: _61  and  _62
REMARK   30  A    between atoms: _62  and  _63
REMARK   31  A    between atoms: _67  and  _69
REMARK   32  A    between atoms: _69  and  _70
REMARK   33  A    between atoms: _69  and  _72
REMARK   34  A    between atoms: _72  and  _73
REMARK   35  A    between atoms: _78  and  _80
REMARK   36  A    between atoms: _80  and  _81
REMARK   37  A    between atoms: _80  and  _83
REMARK   38  A    between atoms: _83  and  _84
REMARK   39  A    between atoms: _84  and  _85
REMARK   40  A    between atoms: _90  and  _92
REMARK   41  A    between atoms: _92  and  _93
REMARK   42  A    between atoms: _92  and  _95
REMARK   43  A    between atoms: _95  and  _96
REMARK   44  A    between atoms: _99  and  _101
REMARK   45  A    between atoms: _101  and  _102
REMARK   46  A    between atoms: _101  and  _104
REMARK   47  A    between atoms: _104  and  _105
REMARK   48  A    between atoms: _110  and  _112
REMARK   49  A    between atoms: _112  and  _113
REMARK   50  A    between atoms: _112  and  _115
REMARK   51  A    between atoms: _115  and  _116
REMARK   52  A    between atoms: _116  and  _117
REMARK   53  A    between atoms: _120  and  _122
REMARK   54  A    between atoms: _122  and  _123
REMARK   55  A    between atoms: _122  and  _125
REMARK   56  A    between atoms: _125  and  _126
REMARK   57  A    between atoms: _130  and  _131
REMARK   58  A    between atoms: _136  and  _138
REMARK   59  A    between atoms: _138  and  _139
REMARK   60  A    between atoms: _141  and  _143
REMARK   61  A    between atoms: _143  and  _144
REMARK   62  A    between atoms: _143  and  _146
REMARK   63  A    between atoms: _146  and  _147
REMARK   64  A    between atoms: _152  and  _154
REMARK   65  A    between atoms: _154  and  _155
REMARK   66  A    between atoms: _158  and  _160
REMARK   67  A    between atoms: _160  and  _161
REMARK   68  A    between atoms: _160  and  _163
REMARK   69  A    between atoms: _166  and  _168
REMARK   70  A    between atoms: _168  and  _169
REMARK   71  A    between atoms: _168  and  _171
REMARK   72  A    between atoms: _171  and  _172
REMARK   73  A    between atoms: _174  and  _176
REMARK   74  A    between atoms: _176  and  _177
REMARK   75  A    between atoms: _176  and  _179
REMARK   76  A    between atoms: _179  and  _180
REMARK   77  A    between atoms: _183  and  _185
REMARK   78  A    between atoms: _185  and  _186
REMARK   79  A    between atoms: _185  and  _188
REMARK   80  A    between atoms: _188  and  _189
REMARK   81  A    between atoms: _192  and  _194
REMARK   82  A    between atoms: _194  and  _195
REMARK   83  A    between atoms: _194  and  _197
REMARK   84  A    between atoms: _197  and  _198
REMARK   85  A    between atoms: _198  and  _199
REMARK   86  A    between atoms: _201  and  _203
REMARK   87  A    between atoms: _203  and  _204
REMARK   88  A    between atoms: _203  and  _206
REMARK   89  A    between atoms: _206  and  _207
REMARK   90  A    between atoms: _207  and  _208
REMARK   91  A    between atoms: _208  and  _209
REMARK   92  A    between atoms: _218  and  _220
REMARK   93  A    between atoms: _220  and  _221
REMARK   94  A    between atoms: _220  and  _223
REMARK   95  A    between atoms: _225  and  _227
REMARK   96  A    between atoms: _227  and  _228
REMARK   97  A    between atoms: _227  and  _230
REMARK   98  A    between atoms: _230  and  _231
REMARK   99  A    between atoms: _233  and  _235
REMARK  100  A    between atoms: _235  and  _236
REMARK  101  A    between atoms: _235  and  _238
REMARK  102  A    between atoms: _238  and  _239
REMARK  103  A    between atoms: _242  and  _244
REMARK  104  A    between atoms: _244  and  _245
REMARK  105  A    between atoms: _244  and  _247
REMARK  106  A    between atoms: _247  and  _248
REMARK  107  A    between atoms: _251  and  _253
REMARK  108  A    between atoms: _253  and  _254
REMARK  109  A    between atoms: _253  and  _256
REMARK  110  A    between atoms: _256  and  _257
REMARK  111  A    between atoms: _263  and  _265
REMARK  112  A    between atoms: _265  and  _266
REMARK  113  A    between atoms: _265  and  _268
REMARK  114  A    between atoms: _268  and  _269
REMARK  115  A    between atoms: _269  and  _270
REMARK  116  A    between atoms: _270  and  _271
REMARK  117  A    between atoms: _271  and  _272
REMARK  118  A    between atoms: _276  and  _278
REMARK  119  A    between atoms: _278  and  _279
REMARK  120  A    between atoms: _278  and  _281
REMARK  121  A    between atoms: _281  and  _282
REMARK  122  A    between atoms: _285  and  _287
REMARK  123  A    between atoms: _287  and  _288
REMARK  124  A    between atoms: _290  and  _292
REMARK  125  A    between atoms: _292  and  _293
REMARK  126  A    between atoms: _292  and  _295
REMARK  127  A    between atoms: _295  and  _296
REMARK  128  A    between atoms: _298  and  _300
REMARK  129  A    between atoms: _300  and  _301
REMARK  130  A    between atoms: _303  and  _305
REMARK  131  A    between atoms: _305  and  _306
REMARK  132  A    between atoms: _305  and  _308
REMARK  133  A    between atoms: _308  and  _309
REMARK  134  A    between atoms: _309  and  _310
REMARK  135  A    between atoms: _313  and  _315
REMARK  136  A    between atoms: _315  and  _316
REMARK  137  A    between atoms: _315  and  _318
REMARK  138  A    between atoms: _320  and  _322
REMARK  139  A    between atoms: _322  and  _323
REMARK  140  A    between atoms: _322  and  _325
REMARK  141  A    between atoms: _325  and  _326
REMARK  142  A    between atoms: _329  and  _331
REMARK  143  A    between atoms: _331  and  _332
REMARK  144  A    between atoms: _331  and  _334
REMARK  145  A    between atoms: _334  and  _335
REMARK  146  A    between atoms: _338  and  _340
REMARK  147  A    between atoms: _340  and  _341
REMARK  148  A    between atoms: _340  and  _343
REMARK  149  A    between atoms: _343  and  _344
REMARK  150  A    between atoms: _346  and  _348
REMARK  151  A    between atoms: _348  and  _349
REMARK  152  A    between atoms: _348  and  _351
REMARK  153  A    between atoms: _351  and  _352
REMARK  154  A    between atoms: _355  and  _357
REMARK  155  A    between atoms: _357  and  _358
REMARK  156  A    between atoms: _360  and  _362
REMARK  157  A    between atoms: _362  and  _363
REMARK  158  A    between atoms: _362  and  _365
REMARK  159  A    between atoms: _365  and  _366
REMARK  160  A    between atoms: _366  and  _367
REMARK  161  A    between atoms: _369  and  _371
REMARK  162  A    between atoms: _371  and  _372
REMARK  163  A    between atoms: _371  and  _374
REMARK  164  A    between atoms: _374  and  _375
REMARK  165  A    between atoms: _380  and  _382
REMARK  166  A    between atoms: _382  and  _383
REMARK  167  A    between atoms: _382  and  _385
REMARK  168  A    between atoms: _385  and  _386
REMARK  169  A    between atoms: _389  and  _391
REMARK  170  A    between atoms: _391  and  _392
REMARK  171  A    between atoms: _391  and  _394
REMARK  172  A    between atoms: _394  and  _395
REMARK  173  A    between atoms: _400  and  _402
REMARK  174  A    between atoms: _402  and  _403
REMARK  175  A    between atoms: _402  and  _405
REMARK  176  A    between atoms: _407  and  _409
REMARK  177  A    between atoms: _409  and  _410
REMARK  178  A    between atoms: _409  and  _412
REMARK  179  A    between atoms: _412  and  _413
REMARK  180  A    between atoms: _416  and  _418
REMARK  181  A    between atoms: _418  and  _419
REMARK  182  A    between atoms: _418  and  _421
REMARK  183  A    between atoms: _421  and  _422
REMARK  184  A    between atoms: _427  and  _429
REMARK  185  A    between atoms: _429  and  _430
REMARK  186  A    between atoms: _429  and  _432
REMARK  187  A    between atoms: _432  and  _433
REMARK  188  A    between atoms: _436  and  _438
REMARK  189  A    between atoms: _438  and  _439
REMARK  190  A    between atoms: _438  and  _441
REMARK  191  A    between atoms: _441  and  _442
REMARK  192  A    between atoms: _447  and  _448
REMARK  193  A    between atoms: _450  and  _452
REMARK  194  A    between atoms: _452  and  _453
REMARK  195  A    between atoms: _452  and  _455
REMARK  196  A    between atoms: _455  and  _456
REMARK  197  A    between atoms: _459  and  _461
REMARK  198  A    between atoms: _461  and  _462
REMARK  199  A    between atoms: _461  and  _464
REMARK  200  A    between atoms: _464  and  _465
REMARK  201  A    between atoms: _467  and  _469
REMARK  202  A    between atoms: _469  and  _470
REMARK  203  A    between atoms: _469  and  _472
REMARK  204  A    between atoms: _472  and  _473
REMARK  205  A    between atoms: _476  and  _478
REMARK  206  A    between atoms: _478  and  _479
REMARK  207  A    between atoms: _478  and  _481
REMARK  208  A    between atoms: _481  and  _482
REMARK  209  A    between atoms: _486  and  MN_638
REMARK  210  A    between atoms: _487  and  _489
REMARK  211  A    between atoms: _489  and  _490
REMARK  212  A    between atoms: _489  and  _492
REMARK  213  A    between atoms: _492  and  _493
REMARK  214  A    between atoms: _493  and  _494
REMARK  215  A    between atoms: _497  and  _499
REMARK  216  A    between atoms: _499  and  _500
REMARK  217  A    between atoms: _499  and  _502
REMARK  218  A    between atoms: _502  and  _503
REMARK  219  A    between atoms: _503  and  _504
REMARK  220  A    between atoms: _504  and  _505
REMARK  221  A    between atoms: _514  and  _516
REMARK  222  A    between atoms: _516  and  _517
REMARK  223  A    between atoms: _516  and  _519
REMARK  224  A    between atoms: _519  and  _520
REMARK  225  A    between atoms: _524  and  MN_638
REMARK  226  A    between atoms: _525  and  _527
REMARK  227  A    between atoms: _527  and  _528
REMARK  228  A    between atoms: _531  and  _532
REMARK  229  A    between atoms: _537  and  _539
REMARK  230  A    between atoms: _539  and  _540
REMARK  231  A    between atoms: _539  and  _542
REMARK  232  A    between atoms: _542  and  _543
REMARK  233  A    between atoms: _546  and  _548
REMARK  234  A    between atoms: _548  and  _549
REMARK  235  A    between atoms: _548  and  _551
REMARK  236  A    between atoms: _551  and  _552
REMARK  237  A    between atoms: _555  and  _557
REMARK  238  A    between atoms: _557  and  _558
REMARK  239  A    between atoms: _557  and  _560
REMARK  240  A    between atoms: _563  and  _564
REMARK  241  A    between atoms: _569  and  _571
REMARK  242  A    between atoms: _571  and  _572
REMARK  243  A    between atoms: _571  and  _574
REMARK  244  A    between atoms: _574  and  _575
REMARK  245  A    between atoms: _578  and  _580
REMARK  246  A    between atoms: _580  and  _581
REMARK  247  A    between atoms: _580  and  _583
REMARK  248  A    between atoms: _583  and  _584
REMARK  249  A    between atoms: _584  and  _585
REMARK  250  A    between atoms: _585  and  _586
REMARK  251  A    between atoms: _586  and  _587
REMARK  252  A    between atoms: _591  and  _593
REMARK  253  A    between atoms: _593  and  _594
REMARK  254  A    between atoms: _593  and  _596
REMARK  255  A    between atoms: _596  and  _597
REMARK  256  A    between atoms: _603  and  _605
REMARK  257  A    between atoms: _605  and  _606
REMARK  258  A    between atoms: _609  and  _611
REMARK  259  A    between atoms: _611  and  _612
REMARK  260  A    between atoms: _611  and  _614
REMARK  261  A    between atoms: _614  and  _615
REMARK  262  A    between atoms: _621  and  _623
REMARK  263  A    between atoms: _623  and  _624
REMARK  264  A    between atoms: _623  and  _626
REMARK  265  A    between atoms: _626  and  _627
REMARK  266  A    between atoms: _627  and  _628
REMARK  267  A    between atoms: _628  and  _629
REMARK                            x       y       z     vdW  Elec       q    Type
REMARK                         _______ _______ _______ _____ _____    ______ ____
ROOT
ATOM      1 MN   UNK A   4      95.608 -18.448  50.995  0.00  0.00    +0.000 Mn
ATOM      2  O   UNK A   4      97.723 -18.589  50.582  0.00  0.00    +0.000 OA
ENDROOT
BRANCH   1   3
ATOM      3  N   UNK A   4      95.574 -18.826  48.600  0.00  0.00    +0.000 N 
ATOM      4  C   UNK A   4      95.311 -17.667  47.912  0.00  0.00    +0.000 A 
ATOM      5  C   UNK A   4      95.805 -17.821  46.659  0.00  0.00    +0.000 A 
ATOM      6  N   UNK A   4      96.369 -19.079  46.627  0.00  0.00    +0.000 NA
ATOM      7  C   UNK A   4      96.215 -19.660  47.801  0.00  0.00    +0.000 A 
BRANCH   5   8
ATOM      8  C   UNK A   4      95.818 -16.886  45.480  0.00  0.00    +0.000 C 
BRANCH   8   9
ATOM      9  C   UNK A   4      96.641 -15.608  45.720  0.00  0.00    +0.000 C 
BRANCH   9  10
ATOM     10  N   UNK A   4      96.007 -14.777  46.710  0.00  0.00    +0.000 N 
ATOM     11  C   ARG A   2      96.633 -13.718  47.204  0.00  0.00    +0.000 C 
ATOM     12  O   ARG A   2      97.825 -13.454  46.962  0.00  0.00    +0.000 OA
ATOM     13  H   UNK A   4      95.049 -15.010  47.041  0.00  0.00    +0.000 HD
BRANCH  11  14
ATOM     14  CA  ARG A   2      95.801 -12.802  48.096  0.00  0.00    +0.000 C 
BRANCH  14  15
ATOM     15  N   ARG A   2      96.709 -12.126  49.018  0.00  0.00    +0.000 N 
ATOM     16  C   GLU A   1      96.511 -12.047  50.328  0.00  0.00    +0.000 C 
ATOM     17  O   GLU A   1      95.423 -12.236  50.856  0.00  0.00    +0.000 OA
ATOM     18  H   ARG A   2      97.562 -11.680  48.625  0.00  0.00    +0.000 HD
BRANCH  16  19
ATOM     19  CA  GLU A   1      97.716 -11.626  51.166  0.00  0.00    +0.000 C 
BRANCH  19  20
ATOM     20  N   GLU A   1      97.392 -10.481  52.022  0.00  0.00    +0.000 NA
ATOM     21  H   GLU A   1      96.593 -10.547  52.685  0.00  0.00    +0.000 HD
ENDBRANCH  19  20
BRANCH  19  22
ATOM     22  CB  GLU A   1      98.210 -12.795  52.013  0.00  0.00    +0.000 C 
BRANCH  22  23
ATOM     23  CG  GLU A   1      98.763 -13.966  51.184  0.00  0.00    +0.000 C 
BRANCH  23  24
ATOM     24  CD  GLU A   1      99.243 -15.147  52.027  0.00  0.00    +0.000 C 
ATOM     25  OE2 GLU A   1      99.990 -14.942  53.008  0.00  0.00    +0.000 OA
ATOM     26  OE1 GLU A   1      98.909 -16.304  51.677  0.00  0.00    +0.000 OA
ENDBRANCH  23  24
ENDBRANCH  22  23
ENDBRANCH  19  22
ENDBRANCH  16  19
ENDBRANCH  14  15
BRANCH  14  27
ATOM     27  CB  ARG A   2      95.054 -11.813  47.202  0.00  0.00    +0.000 C 
BRANCH  27  28
ATOM     28  CG  ARG A   2      94.080 -10.900  47.955  0.00  0.00    +0.000 C 
BRANCH  28  29
ATOM     29  CD  ARG A   2      93.201 -10.112  47.006  0.00  0.00    +0.000 C 
BRANCH  29  30
ATOM     30  NE  ARG A   2      92.376 -11.012  46.221  0.00  0.00    +0.330 N 
ATOM     31  HE  ARG A   2      92.256 -11.983  46.575  0.00  0.00    +0.000 HD
ATOM     32  CZ  ARG A   2      91.764 -10.695  45.090  0.00  0.00    +0.000 C 
ATOM     33  NH2 ARG A   2      91.892  -9.490  44.559  0.00  0.00    +0.330 N 
ATOM     34 HH21 ARG A   2      92.481  -8.774  45.030  0.00  0.00    +0.000 HD
ATOM     35 HH22 ARG A   2      91.404  -9.259  43.670  0.00  0.00    +0.000 HD
ATOM     36  NH1 ARG A   2      91.034 -11.606  44.475  0.00  0.00    +0.330 N 
ATOM     37 HH11 ARG A   2      90.944 -12.560  44.879  0.00  0.00    +0.000 HD
ATOM     38 HH12 ARG A   2      90.548 -11.370  43.586  0.00  0.00    +0.000 HD
ENDBRANCH  29  30
ENDBRANCH  28  29
ENDBRANCH  27  28
ENDBRANCH  14  27
ENDBRANCH  11  14
ENDBRANCH   9  10
BRANCH   9  39
ATOM     39  C   UNK A   4      96.805 -14.759  44.463  0.00  0.00    +0.000 C 
ATOM     40  O   UNK A   3      96.092 -13.777  44.260  0.00  0.00    +0.000 OA
ENDBRANCH   9  39
ENDBRANCH   8   9
ENDBRANCH   5   8
ENDBRANCH   1   3
BRANCH   1  44
ATOM     41  C   UNK A   4      91.435 -17.529  50.555  0.00  0.00    +0.000 A 
ATOM     42  N   UNK A   4      91.628 -17.738  51.904  0.00  0.00    +0.000 NA
ATOM     43  C   UNK A   4      92.887 -18.080  52.123  0.00  0.00    +0.000 A 
ATOM     44  N   UNK A   4      93.521 -18.069  50.971  0.00  0.00    +0.000 N 
ATOM     45  C   UNK A   4      92.639 -17.725  49.972  0.00  0.00    +0.000 A 
BRANCH  41  46
ATOM     46  C   UNK A   4      90.116 -17.101  49.982  0.00  0.00    +0.000 C 
BRANCH  46  47
ATOM     47  C   UNK A   4      90.111 -15.652  49.495  0.00  0.00    +0.000 C 
BRANCH  47  49
ATOM     48  C   UNK A   3      91.717 -14.220  50.655  0.00  0.00    +0.000 C 
ATOM     49  N   UNK A   4      90.498 -14.745  50.574  0.00  0.00    +0.000 N 
ATOM     50  H   UNK A   4      89.797 -14.502  51.303  0.00  0.00    +0.000 HD
ATOM     51  O   UNK A   3      92.619 -14.477  49.843  0.00  0.00    +0.000 OA
BRANCH  48  52
ATOM     52  C   UNK A   3      91.946 -13.272  51.850  0.00  0.00    +0.000 C 
BRANCH  52  55
ATOM     53  C   ARG A   2      93.506 -13.465  53.690  0.00  0.00    +0.000 C 
ATOM     54  O   ARG A   2      92.597 -13.776  54.471  0.00  0.00    +0.000 OA
ATOM     55  N   UNK A   3      93.310 -13.306  52.389  0.00  0.00    +0.000 N 
ATOM     56  H   UNK A   3      94.124 -13.205  51.750  0.00  0.00    +0.000 HD
BRANCH  53  57
ATOM     57  CA  ARG A   2      94.896 -13.188  54.216  0.00  0.00    +0.000 C 
BRANCH  57  59
ATOM     58  C   GLU A   1      95.040 -10.990  55.257  0.00  0.00    +0.000 C 
ATOM     59  N   ARG A   2      94.705 -12.270  55.315  0.00  0.00    +0.000 N 
ATOM     60  H   ARG A   2      94.284 -12.632  56.194  0.00  0.00    +0.000 HD
ATOM     61  O   GLU A   1      95.769 -10.515  54.379  0.00  0.00    +0.000 OA
BRANCH  58  62
ATOM     62  CA  GLU A   1      94.492 -10.125  56.380  0.00  0.00    +0.000 C 
BRANCH  62  63
ATOM     63  N   GLU A   1      95.556  -9.287  56.927  0.00  0.00    +0.000 NA
ATOM     64  H   GLU A   1      96.215  -8.825  56.268  0.00  0.00    +0.000 HD
ENDBRANCH  62  63
BRANCH  62  65
ATOM     65  CB  GLU A   1      93.339  -9.260  55.859  0.00  0.00    +0.000 C 
BRANCH  65  66
ATOM     66  CG  GLU A   1      92.090 -10.043  55.431  0.00  0.00    +0.000 C 
ATOM     67  CD2 GLU A   1      91.289 -10.469  56.611  0.00  0.00    +0.000 C 
ATOM     68  CD1 GLU A   1      91.277  -9.204  54.485  0.00  0.00    +0.000 C 
ENDBRANCH  65  66
ENDBRANCH  62  65
ENDBRANCH  58  62
ENDBRANCH  57  59
BRANCH  57  69
ATOM     69  CB  ARG A   2      95.534 -14.491  54.672  0.00  0.00    +0.000 C 
BRANCH  69  70
ATOM     70  O   ARG A   2      95.632 -15.413  53.608  0.00  0.00    +0.000 OA
ATOM     71  H   ARG A   2      96.050 -16.249  53.935  0.00  0.00    +0.000 HD
ENDBRANCH  69  70
ENDBRANCH  57  69
ENDBRANCH  53  57
ENDBRANCH  52  55
BRANCH  52  72
ATOM     72  C   UNK A   3      91.590 -11.848  51.445  0.00  0.00    +0.000 C 
BRANCH  72  73
ATOM     73  C   UNK A   3      90.140 -11.698  51.097  0.00  0.00    +0.000 C 
ATOM     74  O   UNK A   3      89.316 -11.847  52.021  0.00  0.00    +0.000 OA
ATOM     75  O   UNK A   3      89.805 -11.489  49.902  0.00  0.00    +0.000 OA
ENDBRANCH  72  73
ENDBRANCH  52  72
ENDBRANCH  48  52
ENDBRANCH  47  49
BRANCH  47  76
ATOM     76  C   UNK A   4      88.739 -15.305  48.873  0.00  0.00    +0.000 C 
ATOM     77  O   UNK A   4      88.109 -16.162  48.267  0.00  0.00    +0.000 OA
ENDBRANCH  47  76
ENDBRANCH  46  47
ENDBRANCH  41  46
ENDBRANCH   1  44
TORSDOF 33
REMARK  Name = ../refined-set-2016/2wqp/2wqp_pocket.pdb
REMARK  267 active torsions:
REMARK  status: ('A' for Active; 'I' for Inactive)
REMARK    1  A    between atoms: _1  and  _3
REMARK    2  A    between atoms: _3  and  _4
REMARK    3  A    between atoms: _3  and  _6
REMARK    4  A    between atoms: _6  and  _7
REMARK    5  A    between atoms: _10  and  _12
REMARK    6  A    between atoms: _12  and  _13
REMARK    7  A    between atoms: _12  and  _15
REMARK    8  A    between atoms: _15  and  _16
REMARK    9  A    between atoms: _16  and  _17
REMARK   10  A    between atoms: _20  and  _22
REMARK   11  A    between atoms: _22  and  _23
REMARK   12  A    between atoms: _22  and  _25
REMARK   13  A    between atoms: _25  and  _26
REMARK   14  A    between atoms: _29  and  _31
REMARK   15  A    between atoms: _31  and  _32
REMARK   16  A    between atoms: _34  and  _36
REMARK   17  A    between atoms: _36  and  _37
REMARK   18  A    between atoms: _36  and  _39
REMARK   19  A    between atoms: _39  and  _40
REMARK   20  A    between atoms: _43  and  _45
REMARK   21  A    between atoms: _45  and  _46
REMARK   22  A    between atoms: _45  and  _48
REMARK   23  A    between atoms: _48  and  _49
REMARK   24  A    between atoms: _54  and  _56
REMARK   25  A    between atoms: _56  and  _57
REMARK   26  A    between atoms: _56  and  _59
REMARK   27  A    between atoms: _59  and  _60
REMARK   28  A    between atoms: _60  and  _61
REMARK   29  A    between atoms: _61  and  _62
REMARK   30  A    between atoms: _62  and  _63
REMARK   31  A    between atoms: _67  and  _69
REMARK   32  A    between atoms: _69  and  _70
REMARK   33  A    between atoms: _69  and  _72
REMARK   34  A    between atoms: _72  and  _73
REMARK   35  A    between atoms: _78  and  _80
REMARK   36  A    between atoms: _80  and  _81
REMARK   37  A    between atoms: _80  and  _83
REMARK   38  A    between atoms: _83  and  _84
REMARK   39  A    between atoms: _84  and  _85
REMARK   40  A    between atoms: _90  and  _92
REMARK   41  A    between atoms: _92  and  _93
REMARK   42  A    between atoms: _92  and  _95
REMARK   43  A    between atoms: _95  and  _96
REMARK   44  A    between atoms: _99  and  _101
REMARK   45  A    between atoms: _101  and  _102
REMARK   46  A    between atoms: _101  and  _104
REMARK   47  A    between atoms: _104  and  _105
REMARK   48  A    between atoms: _110  and  _112
REMARK   49  A    between atoms: _112  and  _113
REMARK   50  A    between atoms: _112  and  _115
REMARK   51  A    between atoms: _115  and  _116
REMARK   52  A    between atoms: _116  and  _117
REMARK   53  A    between atoms: _120  and  _122
REMARK   54  A    between atoms: _122  and  _123
REMARK   55  A    between atoms: _122  and  _125
REMARK   56  A    between atoms: _125  and  _126
REMARK   57  A    between atoms: _130  and  _131
REMARK   58  A    between atoms: _136  and  _138
REMARK   59  A    between atoms: _138  and  _139
REMARK   60  A    between atoms: _141  and  _143
REMARK   61  A    between atoms: _143  and  _144
REMARK   62  A    between atoms: _143  and  _146
REMARK   63  A    between atoms: _146  and  _147
REMARK   64  A    between atoms: _152  and  _154
REMARK   65  A    between atoms: _154  and  _155
REMARK   66  A    between atoms: _158  and  _160
REMARK   67  A    between atoms: _160  and  _161
REMARK   68  A    between atoms: _160  and  _163
REMARK   69  A    between atoms: _166  and  _168
REMARK   70  A    between atoms: _168  and  _169
REMARK   71  A    between atoms: _168  and  _171
REMARK   72  A    between atoms: _171  and  _172
REMARK   73  A    between atoms: _174  and  _176
REMARK   74  A    between atoms: _176  and  _177
REMARK   75  A    between atoms: _176  and  _179
REMARK   76  A    between atoms: _179  and  _180
REMARK   77  A    between atoms: _183  and  _185
REMARK   78  A    between atoms: _185  and  _186
REMARK   79  A    between atoms: _185  and  _188
REMARK   80  A    between atoms: _188  and  _189
REMARK   81  A    between atoms: _192  and  _194
REMARK   82  A    between atoms: _194  and  _195
REMARK   83  A    between atoms: _194  and  _197
REMARK   84  A    between atoms: _197  and  _198
REMARK   85  A    between atoms: _198  and  _199
REMARK   86  A    between atoms: _201  and  _203
REMARK   87  A    between atoms: _203  and  _204
REMARK   88  A    between atoms: _203  and  _206
REMARK   89  A    between atoms: _206  and  _207
REMARK   90  A    between atoms: _207  and  _208
REMARK   91  A    between atoms: _208  and  _209
REMARK   92  A    between atoms: _218  and  _220
REMARK   93  A    between atoms: _220  and  _221
REMARK   94  A    between atoms: _220  and  _223
REMARK   95  A    between atoms: _225  and  _227
REMARK   96  A    between atoms: _227  and  _228
REMARK   97  A    between atoms: _227  and  _230
REMARK   98  A    between atoms: _230  and  _231
REMARK   99  A    between atoms: _233  and  _235
REMARK  100  A    between atoms: _235  and  _236
REMARK  101  A    between atoms: _235  and  _238
REMARK  102  A    between atoms: _238  and  _239
REMARK  103  A    between atoms: _242  and  _244
REMARK  104  A    between atoms: _244  and  _245
REMARK  105  A    between atoms: _244  and  _247
REMARK  106  A    between atoms: _247  and  _248
REMARK  107  A    between atoms: _251  and  _253
REMARK  108  A    between atoms: _253  and  _254
REMARK  109  A    between atoms: _253  and  _256
REMARK  110  A    between atoms: _256  and  _257
REMARK  111  A    between atoms: _263  and  _265
REMARK  112  A    between atoms: _265  and  _266
REMARK  113  A    between atoms: _265  and  _268
REMARK  114  A    between atoms: _268  and  _269
REMARK  115  A    between atoms: _269  and  _270
REMARK  116  A    between atoms: _270  and  _271
REMARK  117  A    between atoms: _271  and  _272
REMARK  118  A    between atoms: _276  and  _278
REMARK  119  A    between atoms: _278  and  _279
REMARK  120  A    between atoms: _278  and  _281
REMARK  121  A    between atoms: _281  and  _282
REMARK  122  A    between atoms: _285  and  _287
REMARK  123  A    between atoms: _287  and  _288
REMARK  124  A    between atoms: _290  and  _292
REMARK  125  A    between atoms: _292  and  _293
REMARK  126  A    between atoms: _292  and  _295
REMARK  127  A    between atoms: _295  and  _296
REMARK  128  A    between atoms: _298  and  _300
REMARK  129  A    between atoms: _300  and  _301
REMARK  130  A    between atoms: _303  and  _305
REMARK  131  A    between atoms: _305  and  _306
REMARK  132  A    between atoms: _305  and  _308
REMARK  133  A    between atoms: _308  and  _309
REMARK  134  A    between atoms: _309  and  _310
REMARK  135  A    between atoms: _313  and  _315
REMARK  136  A    between atoms: _315  and  _316
REMARK  137  A    between atoms: _315  and  _318
REMARK  138  A    between atoms: _320  and  _322
REMARK  139  A    between atoms: _322  and  _323
REMARK  140  A    between atoms: _322  and  _325
REMARK  141  A    between atoms: _325  and  _326
REMARK  142  A    between atoms: _329  and  _331
REMARK  143  A    between atoms: _331  and  _332
REMARK  144  A    between atoms: _331  and  _334
REMARK  145  A    between atoms: _334  and  _335
REMARK  146  A    between atoms: _338  and  _340
REMARK  147  A    between atoms: _340  and  _341
REMARK  148  A    between atoms: _340  and  _343
REMARK  149  A    between atoms: _343  and  _344
REMARK  150  A    between atoms: _346  and  _348
REMARK  151  A    between atoms: _348  and  _349
REMARK  152  A    between atoms: _348  and  _351
REMARK  153  A    between atoms: _351  and  _352
REMARK  154  A    between atoms: _355  and  _357
REMARK  155  A    between atoms: _357  and  _358
REMARK  156  A    between atoms: _360  and  _362
REMARK  157  A    between atoms: _362  and  _363
REMARK  158  A    between atoms: _362  and  _365
REMARK  159  A    between atoms: _365  and  _366
REMARK  160  A    between atoms: _366  and  _367
REMARK  161  A    between atoms: _369  and  _371
REMARK  162  A    between atoms: _371  and  _372
REMARK  163  A    between atoms: _371  and  _374
REMARK  164  A    between atoms: _374  and  _375
REMARK  165  A    between atoms: _380  and  _382
REMARK  166  A    between atoms: _382  and  _383
REMARK  167  A    between atoms: _382  and  _385
REMARK  168  A    between atoms: _385  and  _386
REMARK  169  A    between atoms: _389  and  _391
REMARK  170  A    between atoms: _391  and  _392
REMARK  171  A    between atoms: _391  and  _394
REMARK  172  A    between atoms: _394  and  _395
REMARK  173  A    between atoms: _400  and  _402
REMARK  174  A    between atoms: _402  and  _403
REMARK  175  A    between atoms: _402  and  _405
REMARK  176  A    between atoms: _407  and  _409
REMARK  177  A    between atoms: _409  and  _410
REMARK  178  A    between atoms: _409  and  _412
REMARK  179  A    between atoms: _412  and  _413
REMARK  180  A    between atoms: _416  and  _418
REMARK  181  A    between atoms: _418  and  _419
REMARK  182  A    between atoms: _418  and  _421
REMARK  183  A    between atoms: _421  and  _422
REMARK  184  A    between atoms: _427  and  _429
REMARK  185  A    between atoms: _429  and  _430
REMARK  186  A    between atoms: _429  and  _432
REMARK  187  A    between atoms: _432  and  _433
REMARK  188  A    between atoms: _436  and  _438
REMARK  189  A    between atoms: _438  and  _439
REMARK  190  A    between atoms: _438  and  _441
REMARK  191  A    between atoms: _441  and  _442
REMARK  192  A    between atoms: _447  and  _448
REMARK  193  A    between atoms: _450  and  _452
REMARK  194  A    between atoms: _452  and  _453
REMARK  195  A    between atoms: _452  and  _455
REMARK  196  A    between atoms: _455  and  _456
REMARK  197  A    between atoms: _459  and  _461
REMARK  198  A    between atoms: _461  and  _462
REMARK  199  A    between atoms: _461  and  _464
REMARK  200  A    between atoms: _464  and  _465
REMARK  201  A    between atoms: _467  and  _469
REMARK  202  A    between atoms: _469  and  _470
REMARK  203  A    between atoms: _469  and  _472
REMARK  204  A    between atoms: _472  and  _473
REMARK  205  A    between atoms: _476  and  _478
REMARK  206  A    between atoms: _478  and  _479
REMARK  207  A    between atoms: _478  and  _481
REMARK  208  A    between atoms: _481  and  _482
REMARK  209  A    between atoms: _486  and  MN_638
REMARK  210  A    between atoms: _487  and  _489
REMARK  211  A    between atoms: _489  and  _490
REMARK  212  A    between atoms: _489  and  _492
REMARK  213  A    between atoms: _492  and  _493
REMARK  214  A    between atoms: _493  and  _494
REMARK  215  A    between atoms: _497  and  _499
REMARK  216  A    between atoms: _499  and  _500
REMARK  217  A    between atoms: _499  and  _502
REMARK  218  A    between atoms: _502  and  _503
REMARK  219  A    between atoms: _503  and  _504
REMARK  220  A    between atoms: _504  and  _505
REMARK  221  A    between atoms: _514  and  _516
REMARK  222  A    between atoms: _516  and  _517
REMARK  223  A    between atoms: _516  and  _519
REMARK  224  A    between atoms: _519  and  _520
REMARK  225  A    between atoms: _524  and  MN_638
REMARK  226  A    between atoms: _525  and  _527
REMARK  227  A    between atoms: _527  and  _528
REMARK  228  A    between atoms: _531  and  _532
REMARK  229  A    between atoms: _537  and  _539
REMARK  230  A    between atoms: _539  and  _540
REMARK  231  A    between atoms: _539  and  _542
REMARK  232  A    between atoms: _542  and  _543
REMARK  233  A    between atoms: _546  and  _548
REMARK  234  A    between atoms: _548  and  _549
REMARK  235  A    between atoms: _548  and  _551
REMARK  236  A    between atoms: _551  and  _552
REMARK  237  A    between atoms: _555  and  _557
REMARK  238  A    between atoms: _557  and  _558
REMARK  239  A    between atoms: _557  and  _560
REMARK  240  A    between atoms: _563  and  _564
REMARK  241  A    between atoms: _569  and  _571
REMARK  242  A    between atoms: _571  and  _572
REMARK  243  A    between atoms: _571  and  _574
REMARK  244  A    between atoms: _574  and  _575
REMARK  245  A    between atoms: _578  and  _580
REMARK  246  A    between atoms: _580  and  _581
REMARK  247  A    between atoms: _580  and  _583
REMARK  248  A    between atoms: _583  and  _584
REMARK  249  A    between atoms: _584  and  _585
REMARK  250  A    between atoms: _585  and  _586
REMARK  251  A    between atoms: _586  and  _587
REMARK  252  A    between atoms: _591  and  _593
REMARK  253  A    between atoms: _593  and  _594
REMARK  254  A    between atoms: _593  and  _596
REMARK  255  A    between atoms: _596  and  _597
REMARK  256  A    between atoms: _603  and  _605
REMARK  257  A    between atoms: _605  and  _606
REMARK  258  A    between atoms: _609  and  _611
REMARK  259  A    between atoms: _611  and  _612
REMARK  260  A    between atoms: _611  and  _614
REMARK  261  A    between atoms: _614  and  _615
REMARK  262  A    between atoms: _621  and  _623
REMARK  263  A    between atoms: _623  and  _624
REMARK  264  A    between atoms: _623  and  _626
REMARK  265  A    between atoms: _626  and  _627
REMARK  266  A    between atoms: _627  and  _628
REMARK  267  A    between atoms: _628  and  _629
REMARK                            x       y       z     vdW  Elec       q    Type
REMARK                         _______ _______ _______ _____ _____    ______ ____
ROOT
ATOM      1  CA  ASP A   3      92.957 -21.431  43.871  0.00  0.00    +0.160 C 
ENDROOT
BRANCH   1   4
ATOM      2  C   PRO A   2      91.766 -23.467  43.226  0.00  0.00    +0.241 C 
ATOM      3  O   PRO A   2      90.726 -23.081  43.756  0.00  0.00    -0.273 OA
ATOM      4  N   ASP A   3      92.890 -22.751  43.218  0.00  0.00    -0.297 N 
ATOM      5  H   ASP A   3      93.734 -23.130  42.743  0.00  0.00    +0.150 HD
BRANCH   2   8
ATOM      6  C   GLY A   1      92.828 -24.399  40.429  0.00  0.00    +0.243 C 
ATOM      7  N   PRO A   2      92.853 -25.042  41.610  0.00  0.00    -0.272 N 
ATOM      8  CA  PRO A   2      91.805 -24.856  42.617  0.00  0.00    +0.152 C 
ATOM      9  CB  PRO A   2      92.172 -25.866  43.713  0.00  0.00    +0.031 C 
ATOM     10  CG  PRO A   2      93.050 -26.839  43.078  0.00  0.00    +0.024 C 
ATOM     11  CD  PRO A   2      93.741 -26.167  41.936  0.00  0.00    +0.094 C 
ATOM     12  O   GLY A   1      92.033 -23.505  40.166  0.00  0.00    -0.273 OA
BRANCH   6  13
ATOM     13  CA  GLY A   1      93.843 -24.823  39.392  0.00  0.00    +0.170 C 
BRANCH  13  14
ATOM     14  N   GLY A   1      93.321 -24.554  38.050  0.00  0.00    -0.236 NA
ATOM     15  H   GLY A   1      92.318 -24.743  37.850  0.00  0.00    +0.142 HD
ENDBRANCH  13  14
ENDBRANCH   6  13
ENDBRANCH   2   8
ENDBRANCH   1   4
BRANCH   1  16
ATOM     16  C   ASP A   3      92.873 -20.273  42.880  0.00  0.00    +0.241 C 
ATOM     17  O   ASP A   3      92.886 -19.097  43.283  0.00  0.00    -0.273 OA
ATOM     18  N   ILE A   4      92.821 -20.574  41.584  0.00  0.00    -0.298 N 
ATOM     19  H   ILE A   4      92.749 -21.565  41.278  0.00  0.00    +0.150 HD
BRANCH  18  20
ATOM     20  CA  ILE A   4      92.866 -19.493  40.589  0.00  0.00    +0.137 C 
BRANCH  20  21
ATOM     21  C   ILE A   4      91.674 -18.547  40.751  0.00  0.00    +0.227 C 
ATOM     22  O   ILE A   4      91.815 -17.331  40.635  0.00  0.00    -0.286 OA
ENDBRANCH  20  21
BRANCH  20  23
ATOM     23  CB  ILE A   4      92.913 -20.025  39.149  0.00  0.00    +0.026 C 
ATOM     24  CG2 ILE A   4      92.924 -18.890  38.136  0.00  0.00    +0.002 C 
BRANCH  23  25
ATOM     25  CG1 ILE A   4      94.151 -20.881  38.926  0.00  0.00    +0.002 C 
ATOM     26  CD1 ILE A   4      95.457 -20.120  39.036  0.00  0.00    +0.000 C 
ENDBRANCH  23  25
ENDBRANCH  20  23
ENDBRANCH  18  20
ENDBRANCH   1  16
BRANCH   1  27
ATOM     27  CB  ASP A   3      94.254 -21.269  44.673  0.00  0.00    +0.143 C 
BRANCH  27  28
ATOM     28  CG  ASP A   3      94.344 -22.216  45.857  0.00  0.00    +0.367 C 
ATOM     29  OD2 ASP A   3      93.282 -22.671  46.345  0.00  0.00    -0.246 OA
ATOM     30  OD1 ASP A   3      95.489 -22.485  46.290  0.00  0.00    -0.246 OA
ENDBRANCH  27  28
ENDBRANCH   1  27
TORSDOF 11
REMARK  Name = ../refined-set-2016/2wqp/2wqp_pocket.pdb
REMARK  267 active torsions:
REMARK  status: ('A' for Active; 'I' for Inactive)
REMARK    1  A    between atoms: _1  and  _3
REMARK    2  A    between atoms: _3  and  _4
REMARK    3  A    between atoms: _3  and  _6
REMARK    4  A    between atoms: _6  and  _7
REMARK    5  A    between atoms: _10  and  _12
REMARK    6  A    between atoms: _12  and  _13
REMARK    7  A    between atoms: _12  and  _15
REMARK    8  A    between atoms: _15  and  _16
REMARK    9  A    between atoms: _16  and  _17
REMARK   10  A    between atoms: _20  and  _22
REMARK   11  A    between atoms: _22  and  _23
REMARK   12  A    between atoms: _22  and  _25
REMARK   13  A    between atoms: _25  and  _26
REMARK   14  A    between atoms: _29  and  _31
REMARK   15  A    between atoms: _31  and  _32
REMARK   16  A    between atoms: _34  and  _36
REMARK   17  A    between atoms: _36  and  _37
REMARK   18  A    between atoms: _36  and  _39
REMARK   19  A    between atoms: _39  and  _40
REMARK   20  A    between atoms: _43  and  _45
REMARK   21  A    between atoms: _45  and  _46
REMARK   22  A    between atoms: _45  and  _48
REMARK   23  A    between atoms: _48  and  _49
REMARK   24  A    between atoms: _54  and  _56
REMARK   25  A    between atoms: _56  and  _57
REMARK   26  A    between atoms: _56  and  _59
REMARK   27  A    between atoms: _59  and  _60
REMARK   28  A    between atoms: _60  and  _61
REMARK   29  A    between atoms: _61  and  _62
REMARK   30  A    between atoms: _62  and  _63
REMARK   31  A    between atoms: _67  and  _69
REMARK   32  A    between atoms: _69  and  _70
REMARK   33  A    between atoms: _69  and  _72
REMARK   34  A    between atoms: _72  and  _73
REMARK   35  A    between atoms: _78  and  _80
REMARK   36  A    between atoms: _80  and  _81
REMARK   37  A    between atoms: _80  and  _83
REMARK   38  A    between atoms: _83  and  _84
REMARK   39  A    between atoms: _84  and  _85
REMARK   40  A    between atoms: _90  and  _92
REMARK   41  A    between atoms: _92  and  _93
REMARK   42  A    between atoms: _92  and  _95
REMARK   43  A    between atoms: _95  and  _96
REMARK   44  A    between atoms: _99  and  _101
REMARK   45  A    between atoms: _101  and  _102
REMARK   46  A    between atoms: _101  and  _104
REMARK   47  A    between atoms: _104  and  _105
REMARK   48  A    between atoms: _110  and  _112
REMARK   49  A    between atoms: _112  and  _113
REMARK   50  A    between atoms: _112  and  _115
REMARK   51  A    between atoms: _115  and  _116
REMARK   52  A    between atoms: _116  and  _117
REMARK   53  A    between atoms: _120  and  _122
REMARK   54  A    between atoms: _122  and  _123
REMARK   55  A    between atoms: _122  and  _125
REMARK   56  A    between atoms: _125  and  _126
REMARK   57  A    between atoms: _130  and  _131
REMARK   58  A    between atoms: _136  and  _138
REMARK   59  A    between atoms: _138  and  _139
REMARK   60  A    between atoms: _141  and  _143
REMARK   61  A    between atoms: _143  and  _144
REMARK   62  A    between atoms: _143  and  _146
REMARK   63  A    between atoms: _146  and  _147
REMARK   64  A    between atoms: _152  and  _154
REMARK   65  A    between atoms: _154  and  _155
REMARK   66  A    between atoms: _158  and  _160
REMARK   67  A    between atoms: _160  and  _161
REMARK   68  A    between atoms: _160  and  _163
REMARK   69  A    between atoms: _166  and  _168
REMARK   70  A    between atoms: _168  and  _169
REMARK   71  A    between atoms: _168  and  _171
REMARK   72  A    between atoms: _171  and  _172
REMARK   73  A    between atoms: _174  and  _176
REMARK   74  A    between atoms: _176  and  _177
REMARK   75  A    between atoms: _176  and  _179
REMARK   76  A    between atoms: _179  and  _180
REMARK   77  A    between atoms: _183  and  _185
REMARK   78  A    between atoms: _185  and  _186
REMARK   79  A    between atoms: _185  and  _188
REMARK   80  A    between atoms: _188  and  _189
REMARK   81  A    between atoms: _192  and  _194
REMARK   82  A    between atoms: _194  and  _195
REMARK   83  A    between atoms: _194  and  _197
REMARK   84  A    between atoms: _197  and  _198
REMARK   85  A    between atoms: _198  and  _199
REMARK   86  A    between atoms: _201  and  _203
REMARK   87  A    between atoms: _203  and  _204
REMARK   88  A    between atoms: _203  and  _206
REMARK   89  A    between atoms: _206  and  _207
REMARK   90  A    between atoms: _207  and  _208
REMARK   91  A    between atoms: _208  and  _209
REMARK   92  A    between atoms: _218  and  _220
REMARK   93  A    between atoms: _220  and  _221
REMARK   94  A    between atoms: _220  and  _223
REMARK   95  A    between atoms: _225  and  _227
REMARK   96  A    between atoms: _227  and  _228
REMARK   97  A    between atoms: _227  and  _230
REMARK   98  A    between atoms: _230  and  _231
REMARK   99  A    between atoms: _233  and  _235
REMARK  100  A    between atoms: _235  and  _236
REMARK  101  A    between atoms: _235  and  _238
REMARK  102  A    between atoms: _238  and  _239
REMARK  103  A    between atoms: _242  and  _244
REMARK  104  A    between atoms: _244  and  _245
REMARK  105  A    between atoms: _244  and  _247
REMARK  106  A    between atoms: _247  and  _248
REMARK  107  A    between atoms: _251  and  _253
REMARK  108  A    between atoms: _253  and  _254
REMARK  109  A    between atoms: _253  and  _256
REMARK  110  A    between atoms: _256  and  _257
REMARK  111  A    between atoms: _263  and  _265
REMARK  112  A    between atoms: _265  and  _266
REMARK  113  A    between atoms: _265  and  _268
REMARK  114  A    between atoms: _268  and  _269
REMARK  115  A    between atoms: _269  and  _270
REMARK  116  A    between atoms: _270  and  _271
REMARK  117  A    between atoms: _271  and  _272
REMARK  118  A    between atoms: _276  and  _278
REMARK  119  A    between atoms: _278  and  _279
REMARK  120  A    between atoms: _278  and  _281
REMARK  121  A    between atoms: _281  and  _282
REMARK  122  A    between atoms: _285  and  _287
REMARK  123  A    between atoms: _287  and  _288
REMARK  124  A    between atoms: _290  and  _292
REMARK  125  A    between atoms: _292  and  _293
REMARK  126  A    between atoms: _292  and  _295
REMARK  127  A    between atoms: _295  and  _296
REMARK  128  A    between atoms: _298  and  _300
REMARK  129  A    between atoms: _300  and  _301
REMARK  130  A    between atoms: _303  and  _305
REMARK  131  A    between atoms: _305  and  _306
REMARK  132  A    between atoms: _305  and  _308
REMARK  133  A    between atoms: _308  and  _309
REMARK  134  A    between atoms: _309  and  _310
REMARK  135  A    between atoms: _313  and  _315
REMARK  136  A    between atoms: _315  and  _316
REMARK  137  A    between atoms: _315  and  _318
REMARK  138  A    between atoms: _320  and  _322
REMARK  139  A    between atoms: _322  and  _323
REMARK  140  A    between atoms: _322  and  _325
REMARK  141  A    between atoms: _325  and  _326
REMARK  142  A    between atoms: _329  and  _331
REMARK  143  A    between atoms: _331  and  _332
REMARK  144  A    between atoms: _331  and  _334
REMARK  145  A    between atoms: _334  and  _335
REMARK  146  A    between atoms: _338  and  _340
REMARK  147  A    between atoms: _340  and  _341
REMARK  148  A    between atoms: _340  and  _343
REMARK  149  A    between atoms: _343  and  _344
REMARK  150  A    between atoms: _346  and  _348
REMARK  151  A    between atoms: _348  and  _349
REMARK  152  A    between atoms: _348  and  _351
REMARK  153  A    between atoms: _351  and  _352
REMARK  154  A    between atoms: _355  and  _357
REMARK  155  A    between atoms: _357  and  _358
REMARK  156  A    between atoms: _360  and  _362
REMARK  157  A    between atoms: _362  and  _363
REMARK  158  A    between atoms: _362  and  _365
REMARK  159  A    between atoms: _365  and  _366
REMARK  160  A    between atoms: _366  and  _367
REMARK  161  A    between atoms: _369  and  _371
REMARK  162  A    between atoms: _371  and  _372
REMARK  163  A    between atoms: _371  and  _374
REMARK  164  A    between atoms: _374  and  _375
REMARK  165  A    between atoms: _380  and  _382
REMARK  166  A    between atoms: _382  and  _383
REMARK  167  A    between atoms: _382  and  _385
REMARK  168  A    between atoms: _385  and  _386
REMARK  169  A    between atoms: _389  and  _391
REMARK  170  A    between atoms: _391  and  _392
REMARK  171  A    between atoms: _391  and  _394
REMARK  172  A    between atoms: _394  and  _395
REMARK  173  A    between atoms: _400  and  _402
REMARK  174  A    between atoms: _402  and  _403
REMARK  175  A    between atoms: _402  and  _405
REMARK  176  A    between atoms: _407  and  _409
REMARK  177  A    between atoms: _409  and  _410
REMARK  178  A    between atoms: _409  and  _412
REMARK  179  A    between atoms: _412  and  _413
REMARK  180  A    between atoms: _416  and  _418
REMARK  181  A    between atoms: _418  and  _419
REMARK  182  A    between atoms: _418  and  _421
REMARK  183  A    between atoms: _421  and  _422
REMARK  184  A    between atoms: _427  and  _429
REMARK  185  A    between atoms: _429  and  _430
REMARK  186  A    between atoms: _429  and  _432
REMARK  187  A    between atoms: _432  and  _433
REMARK  188  A    between atoms: _436  and  _438
REMARK  189  A    between atoms: _438  and  _439
REMARK  190  A    between atoms: _438  and  _441
REMARK  191  A    between atoms: _441  and  _442
REMARK  192  A    between atoms: _447  and  _448
REMARK  193  A    between atoms: _450  and  _452
REMARK  194  A    between atoms: _452  and  _453
REMARK  195  A    between atoms: _452  and  _455
REMARK  196  A    between atoms: _455  and  _456
REMARK  197  A    between atoms: _459  and  _461
REMARK  198  A    between atoms: _461  and  _462
REMARK  199  A    between atoms: _461  and  _464
REMARK  200  A    between atoms: _464  and  _465
REMARK  201  A    between atoms: _467  and  _469
REMARK  202  A    between atoms: _469  and  _470
REMARK  203  A    between atoms: _469  and  _472
REMARK  204  A    between atoms: _472  and  _473
REMARK  205  A    between atoms: _476  and  _478
REMARK  206  A    between atoms: _478  and  _479
REMARK  207  A    between atoms: _478  and  _481
REMARK  208  A    between atoms: _481  and  _482
REMARK  209  A    between atoms: _486  and  MN_638
REMARK  210  A    between atoms: _487  and  _489
REMARK  211  A    between atoms: _489  and  _490
REMARK  212  A    between atoms: _489  and  _492
REMARK  213  A    between atoms: _492  and  _493
REMARK  214  A    between atoms: _493  and  _494
REMARK  215  A    between atoms: _497  and  _499
REMARK  216  A    between atoms: _499  and  _500
REMARK  217  A    between atoms: _499  and  _502
REMARK  218  A    between atoms: _502  and  _503
REMARK  219  A    between atoms: _503  and  _504
REMARK  220  A    between atoms: _504  and  _505
REMARK  221  A    between atoms: _514  and  _516
REMARK  222  A    between atoms: _516  and  _517
REMARK  223  A    between atoms: _516  and  _519
REMARK  224  A    between atoms: _519  and  _520
REMARK  225  A    between atoms: _524  and  MN_638
REMARK  226  A    between atoms: _525  and  _527
REMARK  227  A    between atoms: _527  and  _528
REMARK  228  A    between atoms: _531  and  _532
REMARK  229  A    between atoms: _537  and  _539
REMARK  230  A    between atoms: _539  and  _540
REMARK  231  A    between atoms: _539  and  _542
REMARK  232  A    between atoms: _542  and  _543
REMARK  233  A    between atoms: _546  and  _548
REMARK  234  A    between atoms: _548  and  _549
REMARK  235  A    between atoms: _548  and  _551
REMARK  236  A    between atoms: _551  and  _552
REMARK  237  A    between atoms: _555  and  _557
REMARK  238  A    between atoms: _557  and  _558
REMARK  239  A    between atoms: _557  and  _560
REMARK  240  A    between atoms: _563  and  _564
REMARK  241  A    between atoms: _569  and  _571
REMARK  242  A    between atoms: _571  and  _572
REMARK  243  A    between atoms: _571  and  _574
REMARK  244  A    between atoms: _574  and  _575
REMARK  245  A    between atoms: _578  and  _580
REMARK  246  A    between atoms: _580  and  _581
REMARK  247  A    between atoms: _580  and  _583
REMARK  248  A    between atoms: _583  and  _584
REMARK  249  A    between atoms: _584  and  _585
REMARK  250  A    between atoms: _585  and  _586
REMARK  251  A    between atoms: _586  and  _587
REMARK  252  A    between atoms: _591  and  _593
REMARK  253  A    between atoms: _593  and  _594
REMARK  254  A    between atoms: _593  and  _596
REMARK  255  A    between atoms: _596  and  _597
REMARK  256  A    between atoms: _603  and  _605
REMARK  257  A    between atoms: _605  and  _606
REMARK  258  A    between atoms: _609  and  _611
REMARK  259  A    between atoms: _611  and  _612
REMARK  260  A    between atoms: _611  and  _614
REMARK  261  A    between atoms: _614  and  _615
REMARK  262  A    between atoms: _621  and  _623
REMARK  263  A    between atoms: _623  and  _624
REMARK  264  A    between atoms: _623  and  _626
REMARK  265  A    between atoms: _626  and  _627
REMARK  266  A    between atoms: _627  and  _628
REMARK  267  A    between atoms: _628  and  _629
REMARK                            x       y       z     vdW  Elec       q    Type
REMARK                         _______ _______ _______ _____ _____    ______ ____
ROOT
ATOM      1  CA  CYS A   1      90.133 -16.173  44.135  0.00  0.00    +0.145 C 
ENDROOT
BRANCH   1   2
ATOM      2  N   CYS A   1      90.092 -17.255  43.166  0.00  0.00    -0.238 NA
ATOM      3  H   CYS A   1      90.614 -18.137  43.344  0.00  0.00    +0.142 HD
ENDBRANCH   1   2
BRANCH   1   4
ATOM      4  CB  CYS A   1      89.960 -16.720  45.559  0.00  0.00    +0.094 C 
ATOM      5  SG  CYS A   1      91.095 -18.052  46.039  0.00  0.00    -0.080 S 
ENDBRANCH   1   4
BRANCH   1   6
ATOM      6  C   CYS A   1      91.422 -15.367  44.020  0.00  0.00    +0.225 C 
ATOM      7  O   CYS A   1      91.723 -14.537  44.874  0.00  0.00    -0.287 OA
ENDBRANCH   1   6
TORSDOF 3
REMARK  Name = ../refined-set-2016/2wqp/2wqp_pocket.pdb
REMARK  267 active torsions:
REMARK  status: ('A' for Active; 'I' for Inactive)
REMARK    1  A    between atoms: _1  and  _3
REMARK    2  A    between atoms: _3  and  _4
REMARK    3  A    between atoms: _3  and  _6
REMARK    4  A    between atoms: _6  and  _7
REMARK    5  A    between atoms: _10  and  _12
REMARK    6  A    between atoms: _12  and  _13
REMARK    7  A    between atoms: _12  and  _15
REMARK    8  A    between atoms: _15  and  _16
REMARK    9  A    between atoms: _16  and  _17
REMARK   10  A    between atoms: _20  and  _22
REMARK   11  A    between atoms: _22  and  _23
REMARK   12  A    between atoms: _22  and  _25
REMARK   13  A    between atoms: _25  and  _26
REMARK   14  A    between atoms: _29  and  _31
REMARK   15  A    between atoms: _31  and  _32
REMARK   16  A    between atoms: _34  and  _36
REMARK   17  A    between atoms: _36  and  _37
REMARK   18  A    between atoms: _36  and  _39
REMARK   19  A    between atoms: _39  and  _40
REMARK   20  A    between atoms: _43  and  _45
REMARK   21  A    between atoms: _45  and  _46
REMARK   22  A    between atoms: _45  and  _48
REMARK   23  A    between atoms: _48  and  _49
REMARK   24  A    between atoms: _54  and  _56
REMARK   25  A    between atoms: _56  and  _57
REMARK   26  A    between atoms: _56  and  _59
REMARK   27  A    between atoms: _59  and  _60
REMARK   28  A    between atoms: _60  and  _61
REMARK   29  A    between atoms: _61  and  _62
REMARK   30  A    between atoms: _62  and  _63
REMARK   31  A    between atoms: _67  and  _69
REMARK   32  A    between atoms: _69  and  _70
REMARK   33  A    between atoms: _69  and  _72
REMARK   34  A    between atoms: _72  and  _73
REMARK   35  A    between atoms: _78  and  _80
REMARK   36  A    between atoms: _80  and  _81
REMARK   37  A    between atoms: _80  and  _83
REMARK   38  A    between atoms: _83  and  _84
REMARK   39  A    between atoms: _84  and  _85
REMARK   40  A    between atoms: _90  and  _92
REMARK   41  A    between atoms: _92  and  _93
REMARK   42  A    between atoms: _92  and  _95
REMARK   43  A    between atoms: _95  and  _96
REMARK   44  A    between atoms: _99  and  _101
REMARK   45  A    between atoms: _101  and  _102
REMARK   46  A    between atoms: _101  and  _104
REMARK   47  A    between atoms: _104  and  _105
REMARK   48  A    between atoms: _110  and  _112
REMARK   49  A    between atoms: _112  and  _113
REMARK   50  A    between atoms: _112  and  _115
REMARK   51  A    between atoms: _115  and  _116
REMARK   52  A    between atoms: _116  and  _117
REMARK   53  A    between atoms: _120  and  _122
REMARK   54  A    between atoms: _122  and  _123
REMARK   55  A    between atoms: _122  and  _125
REMARK   56  A    between atoms: _125  and  _126
REMARK   57  A    between atoms: _130  and  _131
REMARK   58  A    between atoms: _136  and  _138
REMARK   59  A    between atoms: _138  and  _139
REMARK   60  A    between atoms: _141  and  _143
REMARK   61  A    between atoms: _143  and  _144
REMARK   62  A    between atoms: _143  and  _146
REMARK   63  A    between atoms: _146  and  _147
REMARK   64  A    between atoms: _152  and  _154
REMARK   65  A    between atoms: _154  and  _155
REMARK   66  A    between atoms: _158  and  _160
REMARK   67  A    between atoms: _160  and  _161
REMARK   68  A    between atoms: _160  and  _163
REMARK   69  A    between atoms: _166  and  _168
REMARK   70  A    between atoms: _168  and  _169
REMARK   71  A    between atoms: _168  and  _171
REMARK   72  A    between atoms: _171  and  _172
REMARK   73  A    between atoms: _174  and  _176
REMARK   74  A    between atoms: _176  and  _177
REMARK   75  A    between atoms: _176  and  _179
REMARK   76  A    between atoms: _179  and  _180
REMARK   77  A    between atoms: _183  and  _185
REMARK   78  A    between atoms: _185  and  _186
REMARK   79  A    between atoms: _185  and  _188
REMARK   80  A    between atoms: _188  and  _189
REMARK   81  A    between atoms: _192  and  _194
REMARK   82  A    between atoms: _194  and  _195
REMARK   83  A    between atoms: _194  and  _197
REMARK   84  A    between atoms: _197  and  _198
REMARK   85  A    between atoms: _198  and  _199
REMARK   86  A    between atoms: _201  and  _203
REMARK   87  A    between atoms: _203  and  _204
REMARK   88  A    between atoms: _203  and  _206
REMARK   89  A    between atoms: _206  and  _207
REMARK   90  A    between atoms: _207  and  _208
REMARK   91  A    between atoms: _208  and  _209
REMARK   92  A    between atoms: _218  and  _220
REMARK   93  A    between atoms: _220  and  _221
REMARK   94  A    between atoms: _220  and  _223
REMARK   95  A    between atoms: _225  and  _227
REMARK   96  A    between atoms: _227  and  _228
REMARK   97  A    between atoms: _227  and  _230
REMARK   98  A    between atoms: _230  and  _231
REMARK   99  A    between atoms: _233  and  _235
REMARK  100  A    between atoms: _235  and  _236
REMARK  101  A    between atoms: _235  and  _238
REMARK  102  A    between atoms: _238  and  _239
REMARK  103  A    between atoms: _242  and  _244
REMARK  104  A    between atoms: _244  and  _245
REMARK  105  A    between atoms: _244  and  _247
REMARK  106  A    between atoms: _247  and  _248
REMARK  107  A    between atoms: _251  and  _253
REMARK  108  A    between atoms: _253  and  _254
REMARK  109  A    between atoms: _253  and  _256
REMARK  110  A    between atoms: _256  and  _257
REMARK  111  A    between atoms: _263  and  _265
REMARK  112  A    between atoms: _265  and  _266
REMARK  113  A    between atoms: _265  and  _268
REMARK  114  A    between atoms: _268  and  _269
REMARK  115  A    between atoms: _269  and  _270
REMARK  116  A    between atoms: _270  and  _271
REMARK  117  A    between atoms: _271  and  _272
REMARK  118  A    between atoms: _276  and  _278
REMARK  119  A    between atoms: _278  and  _279
REMARK  120  A    between atoms: _278  and  _281
REMARK  121  A    between atoms: _281  and  _282
REMARK  122  A    between atoms: _285  and  _287
REMARK  123  A    between atoms: _287  and  _288
REMARK  124  A    between atoms: _290  and  _292
REMARK  125  A    between atoms: _292  and  _293
REMARK  126  A    between atoms: _292  and  _295
REMARK  127  A    between atoms: _295  and  _296
REMARK  128  A    between atoms: _298  and  _300
REMARK  129  A    between atoms: _300  and  _301
REMARK  130  A    between atoms: _303  and  _305
REMARK  131  A    between atoms: _305  and  _306
REMARK  132  A    between atoms: _305  and  _308
REMARK  133  A    between atoms: _308  and  _309
REMARK  134  A    between atoms: _309  and  _310
REMARK  135  A    between atoms: _313  and  _315
REMARK  136  A    between atoms: _315  and  _316
REMARK  137  A    between atoms: _315  and  _318
REMARK  138  A    between atoms: _320  and  _322
REMARK  139  A    between atoms: _322  and  _323
REMARK  140  A    between atoms: _322  and  _325
REMARK  141  A    between atoms: _325  and  _326
REMARK  142  A    between atoms: _329  and  _331
REMARK  143  A    between atoms: _331  and  _332
REMARK  144  A    between atoms: _331  and  _334
REMARK  145  A    between atoms: _334  and  _335
REMARK  146  A    between atoms: _338  and  _340
REMARK  147  A    between atoms: _340  and  _341
REMARK  148  A    between atoms: _340  and  _343
REMARK  149  A    between atoms: _343  and  _344
REMARK  150  A    between atoms: _346  and  _348
REMARK  151  A    between atoms: _348  and  _349
REMARK  152  A    between atoms: _348  and  _351
REMARK  153  A    between atoms: _351  and  _352
REMARK  154  A    between atoms: _355  and  _357
REMARK  155  A    between atoms: _357  and  _358
REMARK  156  A    between atoms: _360  and  _362
REMARK  157  A    between atoms: _362  and  _363
REMARK  158  A    between atoms: _362  and  _365
REMARK  159  A    between atoms: _365  and  _366
REMARK  160  A    between atoms: _366  and  _367
REMARK  161  A    between atoms: _369  and  _371
REMARK  162  A    between atoms: _371  and  _372
REMARK  163  A    between atoms: _371  and  _374
REMARK  164  A    between atoms: _374  and  _375
REMARK  165  A    between atoms: _380  and  _382
REMARK  166  A    between atoms: _382  and  _383
REMARK  167  A    between atoms: _382  and  _385
REMARK  168  A    between atoms: _385  and  _386
REMARK  169  A    between atoms: _389  and  _391
REMARK  170  A    between atoms: _391  and  _392
REMARK  171  A    between atoms: _391  and  _394
REMARK  172  A    between atoms: _394  and  _395
REMARK  173  A    between atoms: _400  and  _402
REMARK  174  A    between atoms: _402  and  _403
REMARK  175  A    between atoms: _402  and  _405
REMARK  176  A    between atoms: _407  and  _409
REMARK  177  A    between atoms: _409  and  _410
REMARK  178  A    between atoms: _409  and  _412
REMARK  179  A    between atoms: _412  and  _413
REMARK  180  A    between atoms: _416  and  _418
REMARK  181  A    between atoms: _418  and  _419
REMARK  182  A    between atoms: _418  and  _421
REMARK  183  A    between atoms: _421  and  _422
REMARK  184  A    between atoms: _427  and  _429
REMARK  185  A    between atoms: _429  and  _430
REMARK  186  A    between atoms: _429  and  _432
REMARK  187  A    between atoms: _432  and  _433
REMARK  188  A    between atoms: _436  and  _438
REMARK  189  A    between atoms: _438  and  _439
REMARK  190  A    between atoms: _438  and  _441
REMARK  191  A    between atoms: _441  and  _442
REMARK  192  A    between atoms: _447  and  _448
REMARK  193  A    between atoms: _450  and  _452
REMARK  194  A    between atoms: _452  and  _453
REMARK  195  A    between atoms: _452  and  _455
REMARK  196  A    between atoms: _455  and  _456
REMARK  197  A    between atoms: _459  and  _461
REMARK  198  A    between atoms: _461  and  _462
REMARK  199  A    between atoms: _461  and  _464
REMARK  200  A    between atoms: _464  and  _465
REMARK  201  A    between atoms: _467  and  _469
REMARK  202  A    between atoms: _469  and  _470
REMARK  203  A    between atoms: _469  and  _472
REMARK  204  A    between atoms: _472  and  _473
REMARK  205  A    between atoms: _476  and  _478
REMARK  206  A    between atoms: _478  and  _479
REMARK  207  A    between atoms: _478  and  _481
REMARK  208  A    between atoms: _481  and  _482
REMARK  209  A    between atoms: _486  and  MN_638
REMARK  210  A    between atoms: _487  and  _489
REMARK  211  A    between atoms: _489  and  _490
REMARK  212  A    between atoms: _489  and  _492
REMARK  213  A    between atoms: _492  and  _493
REMARK  214  A    between atoms: _493  and  _494
REMARK  215  A    between atoms: _497  and  _499
REMARK  216  A    between atoms: _499  and  _500
REMARK  217  A    between atoms: _499  and  _502
REMARK  218  A    between atoms: _502  and  _503
REMARK  219  A    between atoms: _503  and  _504
REMARK  220  A    between atoms: _504  and  _505
REMARK  221  A    between atoms: _514  and  _516
REMARK  222  A    between atoms: _516  and  _517
REMARK  223  A    between atoms: _516  and  _519
REMARK  224  A    between atoms: _519  and  _520
REMARK  225  A    between atoms: _524  and  MN_638
REMARK  226  A    between atoms: _525  and  _527
REMARK  227  A    between atoms: _527  and  _528
REMARK  228  A    between atoms: _531  and  _532
REMARK  229  A    between atoms: _537  and  _539
REMARK  230  A    between atoms: _539  and  _540
REMARK  231  A    between atoms: _539  and  _542
REMARK  232  A    between atoms: _542  and  _543
REMARK  233  A    between atoms: _546  and  _548
REMARK  234  A    between atoms: _548  and  _549
REMARK  235  A    between atoms: _548  and  _551
REMARK  236  A    between atoms: _551  and  _552
REMARK  237  A    between atoms: _555  and  _557
REMARK  238  A    between atoms: _557  and  _558
REMARK  239  A    between atoms: _557  and  _560
REMARK  240  A    between atoms: _563  and  _564
REMARK  241  A    between atoms: _569  and  _571
REMARK  242  A    between atoms: _571  and  _572
REMARK  243  A    between atoms: _571  and  _574
REMARK  244  A    between atoms: _574  and  _575
REMARK  245  A    between atoms: _578  and  _580
REMARK  246  A    between atoms: _580  and  _581
REMARK  247  A    between atoms: _580  and  _583
REMARK  248  A    between atoms: _583  and  _584
REMARK  249  A    between atoms: _584  and  _585
REMARK  250  A    between atoms: _585  and  _586
REMARK  251  A    between atoms: _586  and  _587
REMARK  252  A    between atoms: _591  and  _593
REMARK  253  A    between atoms: _593  and  _594
REMARK  254  A    between atoms: _593  and  _596
REMARK  255  A    between atoms: _596  and  _597
REMARK  256  A    between atoms: _603  and  _605
REMARK  257  A    between atoms: _605  and  _606
REMARK  258  A    between atoms: _609  and  _611
REMARK  259  A    between atoms: _611  and  _612
REMARK  260  A    between atoms: _611  and  _614
REMARK  261  A    between atoms: _614  and  _615
REMARK  262  A    between atoms: _621  and  _623
REMARK  263  A    between atoms: _623  and  _624
REMARK  264  A    between atoms: _623  and  _626
REMARK  265  A    between atoms: _626  and  _627
REMARK  266  A    between atoms: _627  and  _628
REMARK  267  A    between atoms: _628  and  _629
REMARK                            x       y       z     vdW  Elec       q    Type
REMARK                         _______ _______ _______ _____ _____    ______ ____
ROOT
ATOM      1  C   THR A   2      89.791 -27.888  56.064  0.00  0.00    +0.243 C 
ATOM      2  N   LYS A   3      89.058 -27.677  57.154  0.00  0.00    -0.298 N 
ATOM      3  H   LYS A   3      88.161 -27.154  57.086  0.00  0.00    +0.150 HD
ATOM      4  O   THR A   2      90.871 -28.459  56.104  0.00  0.00    -0.273 OA
ENDROOT
BRANCH   1   5
ATOM      5  CA  THR A   2      89.240 -27.377  54.728  0.00  0.00    +0.176 C 
BRANCH   5   7
ATOM      6  C   PRO A   1      87.522 -29.037  54.338  0.00  0.00    +0.239 C 
ATOM      7  N   THR A   2      87.844 -27.775  54.590  0.00  0.00    -0.295 N 
ATOM      8  H   THR A   2      87.093 -27.062  54.690  0.00  0.00    +0.150 HD
ATOM      9  O   PRO A   1      88.367 -29.919  54.188  0.00  0.00    -0.274 OA
BRANCH   6  14
ATOM     10  N   PRO A   1      85.218 -28.544  55.199  0.00  0.00    -0.210 NA
ATOM     11  CD  PRO A   1      84.021 -27.998  54.521  0.00  0.00    +0.089 C 
ATOM     12  CG  PRO A   1      84.031 -28.686  53.173  0.00  0.00    +0.021 C 
ATOM     13  CB  PRO A   1      85.461 -29.075  52.906  0.00  0.00    +0.028 C 
ATOM     14  CA  PRO A   1      86.039 -29.377  54.292  0.00  0.00    +0.149 C 
ENDBRANCH   6  14
ENDBRANCH   5   7
BRANCH   5  15
ATOM     15  CB  THR A   2      89.376 -25.860  54.656  0.00  0.00    +0.137 C 
ATOM     16  CG2 THR A   2      90.824 -25.464  54.511  0.00  0.00    +0.034 C 
BRANCH  15  17
ATOM     17  OG1 THR A   2      88.652 -25.379  53.518  0.00  0.00    -0.382 OA
ATOM     18  HG1 THR A   2      89.023 -25.787  52.696  0.00  0.00    +0.210 HD
ENDBRANCH  15  17
ENDBRANCH   5  15
ENDBRANCH   1   5
BRANCH   2  19
ATOM     19  CA  LYS A   3      89.514 -28.180  58.445  0.00  0.00    +0.137 C 
BRANCH  19  20
ATOM     20  C   LYS A   3      89.763 -29.683  58.403  0.00  0.00    +0.227 C 
ATOM     21  O   LYS A   3      90.720 -30.173  58.982  0.00  0.00    -0.286 OA
ENDBRANCH  19  20
BRANCH  19  22
ATOM     22  CB  LYS A   3      88.515 -27.876  59.561  0.00  0.00    +0.028 C 
BRANCH  22  23
ATOM     23  CG  LYS A   3      88.283 -26.405  59.807  0.00  0.00    -0.000 C 
BRANCH  23  24
ATOM     24  CD  LYS A   3      87.231 -26.199  60.887  0.00  0.00    -0.024 C 
BRANCH  24  25
ATOM     25  CE  LYS A   3      86.862 -24.736  61.052  0.00  0.00    -0.086 C 
BRANCH  25  26
ATOM     26  NZ  LYS A   3      85.681 -24.550  61.933  0.00  0.00    +0.380 N 
ATOM     27  HZ1 LYS A   3      85.888 -24.939  62.875  0.00  0.00    -0.089 HD
ATOM     28  HZ2 LYS A   3      85.468 -23.535  62.015  0.00  0.00    -0.089 HD
ATOM     29  HZ3 LYS A   3      84.863 -25.045  61.524  0.00  0.00    -0.089 HD
ENDBRANCH  25  26
ENDBRANCH  24  25
ENDBRANCH  23  24
ENDBRANCH  22  23
ENDBRANCH  19  22
ENDBRANCH   2  19
TORSDOF 12
REMARK  Name = ../refined-set-2016/2wqp/2wqp_pocket.pdb
REMARK  267 active torsions:
REMARK  status: ('A' for Active; 'I' for Inactive)
REMARK    1  A    between atoms: _1  and  _3
REMARK    2  A    between atoms: _3  and  _4
REMARK    3  A    between atoms: _3  and  _6
REMARK    4  A    between atoms: _6  and  _7
REMARK    5  A    between atoms: _10  and  _12
REMARK    6  A    between atoms: _12  and  _13
REMARK    7  A    between atoms: _12  and  _15
REMARK    8  A    between atoms: _15  and  _16
REMARK    9  A    between atoms: _16  and  _17
REMARK   10  A    between atoms: _20  and  _22
REMARK   11  A    between atoms: _22  and  _23
REMARK   12  A    between atoms: _22  and  _25
REMARK   13  A    between atoms: _25  and  _26
REMARK   14  A    between atoms: _29  and  _31
REMARK   15  A    between atoms: _31  and  _32
REMARK   16  A    between atoms: _34  and  _36
REMARK   17  A    between atoms: _36  and  _37
REMARK   18  A    between atoms: _36  and  _39
REMARK   19  A    between atoms: _39  and  _40
REMARK   20  A    between atoms: _43  and  _45
REMARK   21  A    between atoms: _45  and  _46
REMARK   22  A    between atoms: _45  and  _48
REMARK   23  A    between atoms: _48  and  _49
REMARK   24  A    between atoms: _54  and  _56
REMARK   25  A    between atoms: _56  and  _57
REMARK   26  A    between atoms: _56  and  _59
REMARK   27  A    between atoms: _59  and  _60
REMARK   28  A    between atoms: _60  and  _61
REMARK   29  A    between atoms: _61  and  _62
REMARK   30  A    between atoms: _62  and  _63
REMARK   31  A    between atoms: _67  and  _69
REMARK   32  A    between atoms: _69  and  _70
REMARK   33  A    between atoms: _69  and  _72
REMARK   34  A    between atoms: _72  and  _73
REMARK   35  A    between atoms: _78  and  _80
REMARK   36  A    between atoms: _80  and  _81
REMARK   37  A    between atoms: _80  and  _83
REMARK   38  A    between atoms: _83  and  _84
REMARK   39  A    between atoms: _84  and  _85
REMARK   40  A    between atoms: _90  and  _92
REMARK   41  A    between atoms: _92  and  _93
REMARK   42  A    between atoms: _92  and  _95
REMARK   43  A    between atoms: _95  and  _96
REMARK   44  A    between atoms: _99  and  _101
REMARK   45  A    between atoms: _101  and  _102
REMARK   46  A    between atoms: _101  and  _104
REMARK   47  A    between atoms: _104  and  _105
REMARK   48  A    between atoms: _110  and  _112
REMARK   49  A    between atoms: _112  and  _113
REMARK   50  A    between atoms: _112  and  _115
REMARK   51  A    between atoms: _115  and  _116
REMARK   52  A    between atoms: _116  and  _117
REMARK   53  A    between atoms: _120  and  _122
REMARK   54  A    between atoms: _122  and  _123
REMARK   55  A    between atoms: _122  and  _125
REMARK   56  A    between atoms: _125  and  _126
REMARK   57  A    between atoms: _130  and  _131
REMARK   58  A    between atoms: _136  and  _138
REMARK   59  A    between atoms: _138  and  _139
REMARK   60  A    between atoms: _141  and  _143
REMARK   61  A    between atoms: _143  and  _144
REMARK   62  A    between atoms: _143  and  _146
REMARK   63  A    between atoms: _146  and  _147
REMARK   64  A    between atoms: _152  and  _154
REMARK   65  A    between atoms: _154  and  _155
REMARK   66  A    between atoms: _158  and  _160
REMARK   67  A    between atoms: _160  and  _161
REMARK   68  A    between atoms: _160  and  _163
REMARK   69  A    between atoms: _166  and  _168
REMARK   70  A    between atoms: _168  and  _169
REMARK   71  A    between atoms: _168  and  _171
REMARK   72  A    between atoms: _171  and  _172
REMARK   73  A    between atoms: _174  and  _176
REMARK   74  A    between atoms: _176  and  _177
REMARK   75  A    between atoms: _176  and  _179
REMARK   76  A    between atoms: _179  and  _180
REMARK   77  A    between atoms: _183  and  _185
REMARK   78  A    between atoms: _185  and  _186
REMARK   79  A    between atoms: _185  and  _188
REMARK   80  A    between atoms: _188  and  _189
REMARK   81  A    between atoms: _192  and  _194
REMARK   82  A    between atoms: _194  and  _195
REMARK   83  A    between atoms: _194  and  _197
REMARK   84  A    between atoms: _197  and  _198
REMARK   85  A    between atoms: _198  and  _199
REMARK   86  A    between atoms: _201  and  _203
REMARK   87  A    between atoms: _203  and  _204
REMARK   88  A    between atoms: _203  and  _206
REMARK   89  A    between atoms: _206  and  _207
REMARK   90  A    between atoms: _207  and  _208
REMARK   91  A    between atoms: _208  and  _209
REMARK   92  A    between atoms: _218  and  _220
REMARK   93  A    between atoms: _220  and  _221
REMARK   94  A    between atoms: _220  and  _223
REMARK   95  A    between atoms: _225  and  _227
REMARK   96  A    between atoms: _227  and  _228
REMARK   97  A    between atoms: _227  and  _230
REMARK   98  A    between atoms: _230  and  _231
REMARK   99  A    between atoms: _233  and  _235
REMARK  100  A    between atoms: _235  and  _236
REMARK  101  A    between atoms: _235  and  _238
REMARK  102  A    between atoms: _238  and  _239
REMARK  103  A    between atoms: _242  and  _244
REMARK  104  A    between atoms: _244  and  _245
REMARK  105  A    between atoms: _244  and  _247
REMARK  106  A    between atoms: _247  and  _248
REMARK  107  A    between atoms: _251  and  _253
REMARK  108  A    between atoms: _253  and  _254
REMARK  109  A    between atoms: _253  and  _256
REMARK  110  A    between atoms: _256  and  _257
REMARK  111  A    between atoms: _263  and  _265
REMARK  112  A    between atoms: _265  and  _266
REMARK  113  A    between atoms: _265  and  _268
REMARK  114  A    between atoms: _268  and  _269
REMARK  115  A    between atoms: _269  and  _270
REMARK  116  A    between atoms: _270  and  _271
REMARK  117  A    between atoms: _271  and  _272
REMARK  118  A    between atoms: _276  and  _278
REMARK  119  A    between atoms: _278  and  _279
REMARK  120  A    between atoms: _278  and  _281
REMARK  121  A    between atoms: _281  and  _282
REMARK  122  A    between atoms: _285  and  _287
REMARK  123  A    between atoms: _287  and  _288
REMARK  124  A    between atoms: _290  and  _292
REMARK  125  A    between atoms: _292  and  _293
REMARK  126  A    between atoms: _292  and  _295
REMARK  127  A    between atoms: _295  and  _296
REMARK  128  A    between atoms: _298  and  _300
REMARK  129  A    between atoms: _300  and  _301
REMARK  130  A    between atoms: _303  and  _305
REMARK  131  A    between atoms: _305  and  _306
REMARK  132  A    between atoms: _305  and  _308
REMARK  133  A    between atoms: _308  and  _309
REMARK  134  A    between atoms: _309  and  _310
REMARK  135  A    between atoms: _313  and  _315
REMARK  136  A    between atoms: _315  and  _316
REMARK  137  A    between atoms: _315  and  _318
REMARK  138  A    between atoms: _320  and  _322
REMARK  139  A    between atoms: _322  and  _323
REMARK  140  A    between atoms: _322  and  _325
REMARK  141  A    between atoms: _325  and  _326
REMARK  142  A    between atoms: _329  and  _331
REMARK  143  A    between atoms: _331  and  _332
REMARK  144  A    between atoms: _331  and  _334
REMARK  145  A    between atoms: _334  and  _335
REMARK  146  A    between atoms: _338  and  _340
REMARK  147  A    between atoms: _340  and  _341
REMARK  148  A    between atoms: _340  and  _343
REMARK  149  A    between atoms: _343  and  _344
REMARK  150  A    between atoms: _346  and  _348
REMARK  151  A    between atoms: _348  and  _349
REMARK  152  A    between atoms: _348  and  _351
REMARK  153  A    between atoms: _351  and  _352
REMARK  154  A    between atoms: _355  and  _357
REMARK  155  A    between atoms: _357  and  _358
REMARK  156  A    between atoms: _360  and  _362
REMARK  157  A    between atoms: _362  and  _363
REMARK  158  A    between atoms: _362  and  _365
REMARK  159  A    between atoms: _365  and  _366
REMARK  160  A    between atoms: _366  and  _367
REMARK  161  A    between atoms: _369  and  _371
REMARK  162  A    between atoms: _371  and  _372
REMARK  163  A    between atoms: _371  and  _374
REMARK  164  A    between atoms: _374  and  _375
REMARK  165  A    between atoms: _380  and  _382
REMARK  166  A    between atoms: _382  and  _383
REMARK  167  A    between atoms: _382  and  _385
REMARK  168  A    between atoms: _385  and  _386
REMARK  169  A    between atoms: _389  and  _391
REMARK  170  A    between atoms: _391  and  _392
REMARK  171  A    between atoms: _391  and  _394
REMARK  172  A    between atoms: _394  and  _395
REMARK  173  A    between atoms: _400  and  _402
REMARK  174  A    between atoms: _402  and  _403
REMARK  175  A    between atoms: _402  and  _405
REMARK  176  A    between atoms: _407  and  _409
REMARK  177  A    between atoms: _409  and  _410
REMARK  178  A    between atoms: _409  and  _412
REMARK  179  A    between atoms: _412  and  _413
REMARK  180  A    between atoms: _416  and  _418
REMARK  181  A    between atoms: _418  and  _419
REMARK  182  A    between atoms: _418  and  _421
REMARK  183  A    between atoms: _421  and  _422
REMARK  184  A    between atoms: _427  and  _429
REMARK  185  A    between atoms: _429  and  _430
REMARK  186  A    between atoms: _429  and  _432
REMARK  187  A    between atoms: _432  and  _433
REMARK  188  A    between atoms: _436  and  _438
REMARK  189  A    between atoms: _438  and  _439
REMARK  190  A    between atoms: _438  and  _441
REMARK  191  A    between atoms: _441  and  _442
REMARK  192  A    between atoms: _447  and  _448
REMARK  193  A    between atoms: _450  and  _452
REMARK  194  A    between atoms: _452  and  _453
REMARK  195  A    between atoms: _452  and  _455
REMARK  196  A    between atoms: _455  and  _456
REMARK  197  A    between atoms: _459  and  _461
REMARK  198  A    between atoms: _461  and  _462
REMARK  199  A    between atoms: _461  and  _464
REMARK  200  A    between atoms: _464  and  _465
REMARK  201  A    between atoms: _467  and  _469
REMARK  202  A    between atoms: _469  and  _470
REMARK  203  A    between atoms: _469  and  _472
REMARK  204  A    between atoms: _472  and  _473
REMARK  205  A    between atoms: _476  and  _478
REMARK  206  A    between atoms: _478  and  _479
REMARK  207  A    between atoms: _478  and  _481
REMARK  208  A    between atoms: _481  and  _482
REMARK  209  A    between atoms: _486  and  MN_638
REMARK  210  A    between atoms: _487  and  _489
REMARK  211  A    between atoms: _489  and  _490
REMARK  212  A    between atoms: _489  and  _492
REMARK  213  A    between atoms: _492  and  _493
REMARK  214  A    between atoms: _493  and  _494
REMARK  215  A    between atoms: _497  and  _499
REMARK  216  A    between atoms: _499  and  _500
REMARK  217  A    between atoms: _499  and  _502
REMARK  218  A    between atoms: _502  and  _503
REMARK  219  A    between atoms: _503  and  _504
REMARK  220  A    between atoms: _504  and  _505
REMARK  221  A    between atoms: _514  and  _516
REMARK  222  A    between atoms: _516  and  _517
REMARK  223  A    between atoms: _516  and  _519
REMARK  224  A    between atoms: _519  and  _520
REMARK  225  A    between atoms: _524  and  MN_638
REMARK  226  A    between atoms: _525  and  _527
REMARK  227  A    between atoms: _527  and  _528
REMARK  228  A    between atoms: _531  and  _532
REMARK  229  A    between atoms: _537  and  _539
REMARK  230  A    between atoms: _539  and  _540
REMARK  231  A    between atoms: _539  and  _542
REMARK  232  A    between atoms: _542  and  _543
REMARK  233  A    between atoms: _546  and  _548
REMARK  234  A    between atoms: _548  and  _549
REMARK  235  A    between atoms: _548  and  _551
REMARK  236  A    between atoms: _551  and  _552
REMARK  237  A    between atoms: _555  and  _557
REMARK  238  A    between atoms: _557  and  _558
REMARK  239  A    between atoms: _557  and  _560
REMARK  240  A    between atoms: _563  and  _564
REMARK  241  A    between atoms: _569  and  _571
REMARK  242  A    between atoms: _571  and  _572
REMARK  243  A    between atoms: _571  and  _574
REMARK  244  A    between atoms: _574  and  _575
REMARK  245  A    between atoms: _578  and  _580
REMARK  246  A    between atoms: _580  and  _581
REMARK  247  A    between atoms: _580  and  _583
REMARK  248  A    between atoms: _583  and  _584
REMARK  249  A    between atoms: _584  and  _585
REMARK  250  A    between atoms: _585  and  _586
REMARK  251  A    between atoms: _586  and  _587
REMARK  252  A    between atoms: _591  and  _593
REMARK  253  A    between atoms: _593  and  _594
REMARK  254  A    between atoms: _593  and  _596
REMARK  255  A    between atoms: _596  and  _597
REMARK  256  A    between atoms: _603  and  _605
REMARK  257  A    between atoms: _605  and  _606
REMARK  258  A    between atoms: _609  and  _611
REMARK  259  A    between atoms: _611  and  _612
REMARK  260  A    between atoms: _611  and  _614
REMARK  261  A    between atoms: _614  and  _615
REMARK  262  A    between atoms: _621  and  _623
REMARK  263  A    between atoms: _623  and  _624
REMARK  264  A    between atoms: _623  and  _626
REMARK  265  A    between atoms: _626  and  _627
REMARK  266  A    between atoms: _627  and  _628
REMARK  267  A    between atoms: _628  and  _629
REMARK                            x       y       z     vdW  Elec       q    Type
REMARK                         _______ _______ _______ _____ _____    ______ ____
ROOT
ATOM      1  CA  ALA A   2      94.259 -29.379  56.614  0.00  0.00    +0.149 C 
ATOM      2  CB  ALA A   2      93.923 -27.896  56.360  0.00  0.00    +0.031 C 
ENDROOT
BRANCH   1   4
ATOM      3  C   PHE A   1      93.228 -31.426  55.826  0.00  0.00    +0.239 C 
ATOM      4  N   ALA A   2      93.095 -30.212  56.351  0.00  0.00    -0.297 N 
ATOM      5  H   ALA A   2      92.146 -29.852  56.577  0.00  0.00    +0.150 HD
ATOM      6  O   PHE A   1      94.314 -32.008  55.764  0.00  0.00    -0.274 OA
BRANCH   3   7
ATOM      7  CA  PHE A   1      91.962 -32.104  55.297  0.00  0.00    +0.149 C 
BRANCH   7   8
ATOM      8  N   PHE A   1      90.720 -31.674  55.960  0.00  0.00    -0.238 NA
ATOM      9  H   PHE A   1      90.219 -30.827  55.623  0.00  0.00    +0.142 HD
ENDBRANCH   7   8
BRANCH   7  10
ATOM     10  CB  PHE A   1      91.876 -31.977  53.762  0.00  0.00    +0.053 C 
BRANCH  10  11
ATOM     11  CG  PHE A   1      92.292 -30.621  53.206  0.00  0.00    -0.020 A 
ATOM     12  CD2 PHE A   1      93.629 -30.281  53.073  0.00  0.00    -0.004 A 
ATOM     13  CE2 PHE A   1      94.014 -29.044  52.530  0.00  0.00    -0.000 A 
ATOM     14  CZ  PHE A   1      93.061 -28.139  52.118  0.00  0.00    -0.000 A 
ATOM     15  CE1 PHE A   1      91.709 -28.474  52.227  0.00  0.00    -0.000 A 
ATOM     16  CD1 PHE A   1      91.337 -29.710  52.761  0.00  0.00    -0.004 A 
ENDBRANCH  10  11
ENDBRANCH   7  10
ENDBRANCH   3   7
ENDBRANCH   1   4
BRANCH   1  17
ATOM     17  C   ALA A   2      94.870 -29.558  57.994  0.00  0.00    +0.241 C 
ATOM     18  N   PHE A   3      94.038 -29.864  58.983  0.00  0.00    -0.298 N 
ATOM     19  H   PHE A   3      93.023 -29.965  58.778  0.00  0.00    +0.150 HD
ATOM     20  O   ALA A   2      96.078 -29.378  58.164  0.00  0.00    -0.273 OA
BRANCH  18  21
ATOM     21  CA  PHE A   3      94.504 -30.061  60.337  0.00  0.00    +0.141 C 
BRANCH  21  22
ATOM     22  C   PHE A   3      95.269 -31.388  60.412  0.00  0.00    +0.227 C 
ATOM     23  O   PHE A   3      94.993 -32.329  59.650  0.00  0.00    -0.286 OA
ENDBRANCH  21  22
BRANCH  21  24
ATOM     24  CB  PHE A   3      93.322 -30.108  61.308  0.00  0.00    +0.054 C 
BRANCH  24  25
ATOM     25  CG  PHE A   3      92.709 -28.761  61.627  0.00  0.00    -0.020 A 
ATOM     26  CD2 PHE A   3      91.683 -28.674  62.566  0.00  0.00    -0.004 A 
ATOM     27  CE2 PHE A   3      91.099 -27.453  62.879  0.00  0.00    -0.000 A 
ATOM     28  CZ  PHE A   3      91.507 -26.312  62.222  0.00  0.00    -0.000 A 
ATOM     29  CE1 PHE A   3      92.518 -26.381  61.278  0.00  0.00    -0.000 A 
ATOM     30  CD1 PHE A   3      93.112 -27.602  60.980  0.00  0.00    -0.004 A 
ENDBRANCH  24  25
ENDBRANCH  21  24
ENDBRANCH  18  21
ENDBRANCH   1  17
TORSDOF 10
REMARK  Name = ../refined-set-2016/2wqp/2wqp_pocket.pdb
REMARK  267 active torsions:
REMARK  status: ('A' for Active; 'I' for Inactive)
REMARK    1  A    between atoms: _1  and  _3
REMARK    2  A    between atoms: _3  and  _4
REMARK    3  A    between atoms: _3  and  _6
REMARK    4  A    between atoms: _6  and  _7
REMARK    5  A    between atoms: _10  and  _12
REMARK    6  A    between atoms: _12  and  _13
REMARK    7  A    between atoms: _12  and  _15
REMARK    8  A    between atoms: _15  and  _16
REMARK    9  A    between atoms: _16  and  _17
REMARK   10  A    between atoms: _20  and  _22
REMARK   11  A    between atoms: _22  and  _23
REMARK   12  A    between atoms: _22  and  _25
REMARK   13  A    between atoms: _25  and  _26
REMARK   14  A    between atoms: _29  and  _31
REMARK   15  A    between atoms: _31  and  _32
REMARK   16  A    between atoms: _34  and  _36
REMARK   17  A    between atoms: _36  and  _37
REMARK   18  A    between atoms: _36  and  _39
REMARK   19  A    between atoms: _39  and  _40
REMARK   20  A    between atoms: _43  and  _45
REMARK   21  A    between atoms: _45  and  _46
REMARK   22  A    between atoms: _45  and  _48
REMARK   23  A    between atoms: _48  and  _49
REMARK   24  A    between atoms: _54  and  _56
REMARK   25  A    between atoms: _56  and  _57
REMARK   26  A    between atoms: _56  and  _59
REMARK   27  A    between atoms: _59  and  _60
REMARK   28  A    between atoms: _60  and  _61
REMARK   29  A    between atoms: _61  and  _62
REMARK   30  A    between atoms: _62  and  _63
REMARK   31  A    between atoms: _67  and  _69
REMARK   32  A    between atoms: _69  and  _70
REMARK   33  A    between atoms: _69  and  _72
REMARK   34  A    between atoms: _72  and  _73
REMARK   35  A    between atoms: _78  and  _80
REMARK   36  A    between atoms: _80  and  _81
REMARK   37  A    between atoms: _80  and  _83
REMARK   38  A    between atoms: _83  and  _84
REMARK   39  A    between atoms: _84  and  _85
REMARK   40  A    between atoms: _90  and  _92
REMARK   41  A    between atoms: _92  and  _93
REMARK   42  A    between atoms: _92  and  _95
REMARK   43  A    between atoms: _95  and  _96
REMARK   44  A    between atoms: _99  and  _101
REMARK   45  A    between atoms: _101  and  _102
REMARK   46  A    between atoms: _101  and  _104
REMARK   47  A    between atoms: _104  and  _105
REMARK   48  A    between atoms: _110  and  _112
REMARK   49  A    between atoms: _112  and  _113
REMARK   50  A    between atoms: _112  and  _115
REMARK   51  A    between atoms: _115  and  _116
REMARK   52  A    between atoms: _116  and  _117
REMARK   53  A    between atoms: _120  and  _122
REMARK   54  A    between atoms: _122  and  _123
REMARK   55  A    between atoms: _122  and  _125
REMARK   56  A    between atoms: _125  and  _126
REMARK   57  A    between atoms: _130  and  _131
REMARK   58  A    between atoms: _136  and  _138
REMARK   59  A    between atoms: _138  and  _139
REMARK   60  A    between atoms: _141  and  _143
REMARK   61  A    between atoms: _143  and  _144
REMARK   62  A    between atoms: _143  and  _146
REMARK   63  A    between atoms: _146  and  _147
REMARK   64  A    between atoms: _152  and  _154
REMARK   65  A    between atoms: _154  and  _155
REMARK   66  A    between atoms: _158  and  _160
REMARK   67  A    between atoms: _160  and  _161
REMARK   68  A    between atoms: _160  and  _163
REMARK   69  A    between atoms: _166  and  _168
REMARK   70  A    between atoms: _168  and  _169
REMARK   71  A    between atoms: _168  and  _171
REMARK   72  A    between atoms: _171  and  _172
REMARK   73  A    between atoms: _174  and  _176
REMARK   74  A    between atoms: _176  and  _177
REMARK   75  A    between atoms: _176  and  _179
REMARK   76  A    between atoms: _179  and  _180
REMARK   77  A    between atoms: _183  and  _185
REMARK   78  A    between atoms: _185  and  _186
REMARK   79  A    between atoms: _185  and  _188
REMARK   80  A    between atoms: _188  and  _189
REMARK   81  A    between atoms: _192  and  _194
REMARK   82  A    between atoms: _194  and  _195
REMARK   83  A    between atoms: _194  and  _197
REMARK   84  A    between atoms: _197  and  _198
REMARK   85  A    between atoms: _198  and  _199
REMARK   86  A    between atoms: _201  and  _203
REMARK   87  A    between atoms: _203  and  _204
REMARK   88  A    between atoms: _203  and  _206
REMARK   89  A    between atoms: _206  and  _207
REMARK   90  A    between atoms: _207  and  _208
REMARK   91  A    between atoms: _208  and  _209
REMARK   92  A    between atoms: _218  and  _220
REMARK   93  A    between atoms: _220  and  _221
REMARK   94  A    between atoms: _220  and  _223
REMARK   95  A    between atoms: _225  and  _227
REMARK   96  A    between atoms: _227  and  _228
REMARK   97  A    between atoms: _227  and  _230
REMARK   98  A    between atoms: _230  and  _231
REMARK   99  A    between atoms: _233  and  _235
REMARK  100  A    between atoms: _235  and  _236
REMARK  101  A    between atoms: _235  and  _238
REMARK  102  A    between atoms: _238  and  _239
REMARK  103  A    between atoms: _242  and  _244
REMARK  104  A    between atoms: _244  and  _245
REMARK  105  A    between atoms: _244  and  _247
REMARK  106  A    between atoms: _247  and  _248
REMARK  107  A    between atoms: _251  and  _253
REMARK  108  A    between atoms: _253  and  _254
REMARK  109  A    between atoms: _253  and  _256
REMARK  110  A    between atoms: _256  and  _257
REMARK  111  A    between atoms: _263  and  _265
REMARK  112  A    between atoms: _265  and  _266
REMARK  113  A    between atoms: _265  and  _268
REMARK  114  A    between atoms: _268  and  _269
REMARK  115  A    between atoms: _269  and  _270
REMARK  116  A    between atoms: _270  and  _271
REMARK  117  A    between atoms: _271  and  _272
REMARK  118  A    between atoms: _276  and  _278
REMARK  119  A    between atoms: _278  and  _279
REMARK  120  A    between atoms: _278  and  _281
REMARK  121  A    between atoms: _281  and  _282
REMARK  122  A    between atoms: _285  and  _287
REMARK  123  A    between atoms: _287  and  _288
REMARK  124  A    between atoms: _290  and  _292
REMARK  125  A    between atoms: _292  and  _293
REMARK  126  A    between atoms: _292  and  _295
REMARK  127  A    between atoms: _295  and  _296
REMARK  128  A    between atoms: _298  and  _300
REMARK  129  A    between atoms: _300  and  _301
REMARK  130  A    between atoms: _303  and  _305
REMARK  131  A    between atoms: _305  and  _306
REMARK  132  A    between atoms: _305  and  _308
REMARK  133  A    between atoms: _308  and  _309
REMARK  134  A    between atoms: _309  and  _310
REMARK  135  A    between atoms: _313  and  _315
REMARK  136  A    between atoms: _315  and  _316
REMARK  137  A    between atoms: _315  and  _318
REMARK  138  A    between atoms: _320  and  _322
REMARK  139  A    between atoms: _322  and  _323
REMARK  140  A    between atoms: _322  and  _325
REMARK  141  A    between atoms: _325  and  _326
REMARK  142  A    between atoms: _329  and  _331
REMARK  143  A    between atoms: _331  and  _332
REMARK  144  A    between atoms: _331  and  _334
REMARK  145  A    between atoms: _334  and  _335
REMARK  146  A    between atoms: _338  and  _340
REMARK  147  A    between atoms: _340  and  _341
REMARK  148  A    between atoms: _340  and  _343
REMARK  149  A    between atoms: _343  and  _344
REMARK  150  A    between atoms: _346  and  _348
REMARK  151  A    between atoms: _348  and  _349
REMARK  152  A    between atoms: _348  and  _351
REMARK  153  A    between atoms: _351  and  _352
REMARK  154  A    between atoms: _355  and  _357
REMARK  155  A    between atoms: _357  and  _358
REMARK  156  A    between atoms: _360  and  _362
REMARK  157  A    between atoms: _362  and  _363
REMARK  158  A    between atoms: _362  and  _365
REMARK  159  A    between atoms: _365  and  _366
REMARK  160  A    between atoms: _366  and  _367
REMARK  161  A    between atoms: _369  and  _371
REMARK  162  A    between atoms: _371  and  _372
REMARK  163  A    between atoms: _371  and  _374
REMARK  164  A    between atoms: _374  and  _375
REMARK  165  A    between atoms: _380  and  _382
REMARK  166  A    between atoms: _382  and  _383
REMARK  167  A    between atoms: _382  and  _385
REMARK  168  A    between atoms: _385  and  _386
REMARK  169  A    between atoms: _389  and  _391
REMARK  170  A    between atoms: _391  and  _392
REMARK  171  A    between atoms: _391  and  _394
REMARK  172  A    between atoms: _394  and  _395
REMARK  173  A    between atoms: _400  and  _402
REMARK  174  A    between atoms: _402  and  _403
REMARK  175  A    between atoms: _402  and  _405
REMARK  176  A    between atoms: _407  and  _409
REMARK  177  A    between atoms: _409  and  _410
REMARK  178  A    between atoms: _409  and  _412
REMARK  179  A    between atoms: _412  and  _413
REMARK  180  A    between atoms: _416  and  _418
REMARK  181  A    between atoms: _418  and  _419
REMARK  182  A    between atoms: _418  and  _421
REMARK  183  A    between atoms: _421  and  _422
REMARK  184  A    between atoms: _427  and  _429
REMARK  185  A    between atoms: _429  and  _430
REMARK  186  A    between atoms: _429  and  _432
REMARK  187  A    between atoms: _432  and  _433
REMARK  188  A    between atoms: _436  and  _438
REMARK  189  A    between atoms: _438  and  _439
REMARK  190  A    between atoms: _438  and  _441
REMARK  191  A    between atoms: _441  and  _442
REMARK  192  A    between atoms: _447  and  _448
REMARK  193  A    between atoms: _450  and  _452
REMARK  194  A    between atoms: _452  and  _453
REMARK  195  A    between atoms: _452  and  _455
REMARK  196  A    between atoms: _455  and  _456
REMARK  197  A    between atoms: _459  and  _461
REMARK  198  A    between atoms: _461  and  _462
REMARK  199  A    between atoms: _461  and  _464
REMARK  200  A    between atoms: _464  and  _465
REMARK  201  A    between atoms: _467  and  _469
REMARK  202  A    between atoms: _469  and  _470
REMARK  203  A    between atoms: _469  and  _472
REMARK  204  A    between atoms: _472  and  _473
REMARK  205  A    between atoms: _476  and  _478
REMARK  206  A    between atoms: _478  and  _479
REMARK  207  A    between atoms: _478  and  _481
REMARK  208  A    between atoms: _481  and  _482
REMARK  209  A    between atoms: _486  and  MN_638
REMARK  210  A    between atoms: _487  and  _489
REMARK  211  A    between atoms: _489  and  _490
REMARK  212  A    between atoms: _489  and  _492
REMARK  213  A    between atoms: _492  and  _493
REMARK  214  A    between atoms: _493  and  _494
REMARK  215  A    between atoms: _497  and  _499
REMARK  216  A    between atoms: _499  and  _500
REMARK  217  A    between atoms: _499  and  _502
REMARK  218  A    between atoms: _502  and  _503
REMARK  219  A    between atoms: _503  and  _504
REMARK  220  A    between atoms: _504  and  _505
REMARK  221  A    between atoms: _514  and  _516
REMARK  222  A    between atoms: _516  and  _517
REMARK  223  A    between atoms: _516  and  _519
REMARK  224  A    between atoms: _519  and  _520
REMARK  225  A    between atoms: _524  and  MN_638
REMARK  226  A    between atoms: _525  and  _527
REMARK  227  A    between atoms: _527  and  _528
REMARK  228  A    between atoms: _531  and  _532
REMARK  229  A    between atoms: _537  and  _539
REMARK  230  A    between atoms: _539  and  _540
REMARK  231  A    between atoms: _539  and  _542
REMARK  232  A    between atoms: _542  and  _543
REMARK  233  A    between atoms: _546  and  _548
REMARK  234  A    between atoms: _548  and  _549
REMARK  235  A    between atoms: _548  and  _551
REMARK  236  A    between atoms: _551  and  _552
REMARK  237  A    between atoms: _555  and  _557
REMARK  238  A    between atoms: _557  and  _558
REMARK  239  A    between atoms: _557  and  _560
REMARK  240  A    between atoms: _563  and  _564
REMARK  241  A    between atoms: _569  and  _571
REMARK  242  A    between atoms: _571  and  _572
REMARK  243  A    between atoms: _571  and  _574
REMARK  244  A    between atoms: _574  and  _575
REMARK  245  A    between atoms: _578  and  _580
REMARK  246  A    between atoms: _580  and  _581
REMARK  247  A    between atoms: _580  and  _583
REMARK  248  A    between atoms: _583  and  _584
REMARK  249  A    between atoms: _584  and  _585
REMARK  250  A    between atoms: _585  and  _586
REMARK  251  A    between atoms: _586  and  _587
REMARK  252  A    between atoms: _591  and  _593
REMARK  253  A    between atoms: _593  and  _594
REMARK  254  A    between atoms: _593  and  _596
REMARK  255  A    between atoms: _596  and  _597
REMARK  256  A    between atoms: _603  and  _605
REMARK  257  A    between atoms: _605  and  _606
REMARK  258  A    between atoms: _609  and  _611
REMARK  259  A    between atoms: _611  and  _612
REMARK  260  A    between atoms: _611  and  _614
REMARK  261  A    between atoms: _614  and  _615
REMARK  262  A    between atoms: _621  and  _623
REMARK  263  A    between atoms: _623  and  _624
REMARK  264  A    between atoms: _623  and  _626
REMARK  265  A    between atoms: _626  and  _627
REMARK  266  A    between atoms: _627  and  _628
REMARK  267  A    between atoms: _628  and  _629
REMARK                            x       y       z     vdW  Elec       q    Type
REMARK                         _______ _______ _______ _____ _____    ______ ____
ROOT
ATOM      1  NE  ARG A   1      97.689 -29.583  55.659  0.00  0.00    -0.265 N 
ATOM      2  HE  ARG A   1      97.712 -29.295  56.658  0.00  0.00    +0.259 HD
ATOM      3  CZ  ARG A   1      97.586 -28.623  54.744  0.00  0.00    +0.342 C 
ATOM      4  NH2 ARG A   1      97.496 -27.353  55.123  0.00  0.00    -0.292 N 
ATOM      5 HH21 ARG A   1      97.506 -27.110  56.134  0.00  0.00    +0.255 HD
ATOM      6 HH22 ARG A   1      97.415 -26.602  54.409  0.00  0.00    +0.255 HD
ATOM      7  NH1 ARG A   1      97.548 -28.917  53.452  0.00  0.00    -0.292 N 
ATOM      8 HH11 ARG A   1      97.599 -29.909  53.143  0.00  0.00    +0.255 HD
ATOM      9 HH12 ARG A   1      97.467 -28.156  52.748  0.00  0.00    +0.255 HD
ENDROOT
BRANCH   1  10
ATOM     10  CD  ARG A   1      97.772 -31.008  55.367  0.00  0.00    +0.174 C 
BRANCH  10  11
ATOM     11  CG  ARG A   1      97.761 -31.813  56.637  0.00  0.00    +0.045 C 
BRANCH  11  12
ATOM     12  CB  ARG A   1      97.497 -33.276  56.378  0.00  0.00    +0.029 C 
BRANCH  12  13
ATOM     13  CA  ARG A   1      97.581 -34.167  57.624  0.00  0.00    +0.133 C 
BRANCH  13  14
ATOM     14  N   ARG A   1      98.950 -34.177  58.157  0.00  0.00    -0.239 NA
ATOM     15  H   ARG A   1      99.695 -33.650  57.658  0.00  0.00    +0.142 HD
ENDBRANCH  13  14
BRANCH  13  16
ATOM     16  C   ARG A   1      97.183 -35.593  57.238  0.00  0.00    +0.224 C 
ATOM     17  O   ARG A   1      98.045 -36.425  56.974  0.00  0.00    -0.287 OA
ENDBRANCH  13  16
ENDBRANCH  12  13
ENDBRANCH  11  12
ENDBRANCH  10  11
ENDBRANCH   1  10
TORSDOF 6
REMARK  Name = ../refined-set-2016/2wqp/2wqp_pocket.pdb
REMARK  267 active torsions:
REMARK  status: ('A' for Active; 'I' for Inactive)
REMARK    1  A    between atoms: _1  and  _3
REMARK    2  A    between atoms: _3  and  _4
REMARK    3  A    between atoms: _3  and  _6
REMARK    4  A    between atoms: _6  and  _7
REMARK    5  A    between atoms: _10  and  _12
REMARK    6  A    between atoms: _12  and  _13
REMARK    7  A    between atoms: _12  and  _15
REMARK    8  A    between atoms: _15  and  _16
REMARK    9  A    between atoms: _16  and  _17
REMARK   10  A    between atoms: _20  and  _22
REMARK   11  A    between atoms: _22  and  _23
REMARK   12  A    between atoms: _22  and  _25
REMARK   13  A    between atoms: _25  and  _26
REMARK   14  A    between atoms: _29  and  _31
REMARK   15  A    between atoms: _31  and  _32
REMARK   16  A    between atoms: _34  and  _36
REMARK   17  A    between atoms: _36  and  _37
REMARK   18  A    between atoms: _36  and  _39
REMARK   19  A    between atoms: _39  and  _40
REMARK   20  A    between atoms: _43  and  _45
REMARK   21  A    between atoms: _45  and  _46
REMARK   22  A    between atoms: _45  and  _48
REMARK   23  A    between atoms: _48  and  _49
REMARK   24  A    between atoms: _54  and  _56
REMARK   25  A    between atoms: _56  and  _57
REMARK   26  A    between atoms: _56  and  _59
REMARK   27  A    between atoms: _59  and  _60
REMARK   28  A    between atoms: _60  and  _61
REMARK   29  A    between atoms: _61  and  _62
REMARK   30  A    between atoms: _62  and  _63
REMARK   31  A    between atoms: _67  and  _69
REMARK   32  A    between atoms: _69  and  _70
REMARK   33  A    between atoms: _69  and  _72
REMARK   34  A    between atoms: _72  and  _73
REMARK   35  A    between atoms: _78  and  _80
REMARK   36  A    between atoms: _80  and  _81
REMARK   37  A    between atoms: _80  and  _83
REMARK   38  A    between atoms: _83  and  _84
REMARK   39  A    between atoms: _84  and  _85
REMARK   40  A    between atoms: _90  and  _92
REMARK   41  A    between atoms: _92  and  _93
REMARK   42  A    between atoms: _92  and  _95
REMARK   43  A    between atoms: _95  and  _96
REMARK   44  A    between atoms: _99  and  _101
REMARK   45  A    between atoms: _101  and  _102
REMARK   46  A    between atoms: _101  and  _104
REMARK   47  A    between atoms: _104  and  _105
REMARK   48  A    between atoms: _110  and  _112
REMARK   49  A    between atoms: _112  and  _113
REMARK   50  A    between atoms: _112  and  _115
REMARK   51  A    between atoms: _115  and  _116
REMARK   52  A    between atoms: _116  and  _117
REMARK   53  A    between atoms: _120  and  _122
REMARK   54  A    between atoms: _122  and  _123
REMARK   55  A    between atoms: _122  and  _125
REMARK   56  A    between atoms: _125  and  _126
REMARK   57  A    between atoms: _130  and  _131
REMARK   58  A    between atoms: _136  and  _138
REMARK   59  A    between atoms: _138  and  _139
REMARK   60  A    between atoms: _141  and  _143
REMARK   61  A    between atoms: _143  and  _144
REMARK   62  A    between atoms: _143  and  _146
REMARK   63  A    between atoms: _146  and  _147
REMARK   64  A    between atoms: _152  and  _154
REMARK   65  A    between atoms: _154  and  _155
REMARK   66  A    between atoms: _158  and  _160
REMARK   67  A    between atoms: _160  and  _161
REMARK   68  A    between atoms: _160  and  _163
REMARK   69  A    between atoms: _166  and  _168
REMARK   70  A    between atoms: _168  and  _169
REMARK   71  A    between atoms: _168  and  _171
REMARK   72  A    between atoms: _171  and  _172
REMARK   73  A    between atoms: _174  and  _176
REMARK   74  A    between atoms: _176  and  _177
REMARK   75  A    between atoms: _176  and  _179
REMARK   76  A    between atoms: _179  and  _180
REMARK   77  A    between atoms: _183  and  _185
REMARK   78  A    between atoms: _185  and  _186
REMARK   79  A    between atoms: _185  and  _188
REMARK   80  A    between atoms: _188  and  _189
REMARK   81  A    between atoms: _192  and  _194
REMARK   82  A    between atoms: _194  and  _195
REMARK   83  A    between atoms: _194  and  _197
REMARK   84  A    between atoms: _197  and  _198
REMARK   85  A    between atoms: _198  and  _199
REMARK   86  A    between atoms: _201  and  _203
REMARK   87  A    between atoms: _203  and  _204
REMARK   88  A    between atoms: _203  and  _206
REMARK   89  A    between atoms: _206  and  _207
REMARK   90  A    between atoms: _207  and  _208
REMARK   91  A    between atoms: _208  and  _209
REMARK   92  A    between atoms: _218  and  _220
REMARK   93  A    between atoms: _220  and  _221
REMARK   94  A    between atoms: _220  and  _223
REMARK   95  A    between atoms: _225  and  _227
REMARK   96  A    between atoms: _227  and  _228
REMARK   97  A    between atoms: _227  and  _230
REMARK   98  A    between atoms: _230  and  _231
REMARK   99  A    between atoms: _233  and  _235
REMARK  100  A    between atoms: _235  and  _236
REMARK  101  A    between atoms: _235  and  _238
REMARK  102  A    between atoms: _238  and  _239
REMARK  103  A    between atoms: _242  and  _244
REMARK  104  A    between atoms: _244  and  _245
REMARK  105  A    between atoms: _244  and  _247
REMARK  106  A    between atoms: _247  and  _248
REMARK  107  A    between atoms: _251  and  _253
REMARK  108  A    between atoms: _253  and  _254
REMARK  109  A    between atoms: _253  and  _256
REMARK  110  A    between atoms: _256  and  _257
REMARK  111  A    between atoms: _263  and  _265
REMARK  112  A    between atoms: _265  and  _266
REMARK  113  A    between atoms: _265  and  _268
REMARK  114  A    between atoms: _268  and  _269
REMARK  115  A    between atoms: _269  and  _270
REMARK  116  A    between atoms: _270  and  _271
REMARK  117  A    between atoms: _271  and  _272
REMARK  118  A    between atoms: _276  and  _278
REMARK  119  A    between atoms: _278  and  _279
REMARK  120  A    between atoms: _278  and  _281
REMARK  121  A    between atoms: _281  and  _282
REMARK  122  A    between atoms: _285  and  _287
REMARK  123  A    between atoms: _287  and  _288
REMARK  124  A    between atoms: _290  and  _292
REMARK  125  A    between atoms: _292  and  _293
REMARK  126  A    between atoms: _292  and  _295
REMARK  127  A    between atoms: _295  and  _296
REMARK  128  A    between atoms: _298  and  _300
REMARK  129  A    between atoms: _300  and  _301
REMARK  130  A    between atoms: _303  and  _305
REMARK  131  A    between atoms: _305  and  _306
REMARK  132  A    between atoms: _305  and  _308
REMARK  133  A    between atoms: _308  and  _309
REMARK  134  A    between atoms: _309  and  _310
REMARK  135  A    between atoms: _313  and  _315
REMARK  136  A    between atoms: _315  and  _316
REMARK  137  A    between atoms: _315  and  _318
REMARK  138  A    between atoms: _320  and  _322
REMARK  139  A    between atoms: _322  and  _323
REMARK  140  A    between atoms: _322  and  _325
REMARK  141  A    between atoms: _325  and  _326
REMARK  142  A    between atoms: _329  and  _331
REMARK  143  A    between atoms: _331  and  _332
REMARK  144  A    between atoms: _331  and  _334
REMARK  145  A    between atoms: _334  and  _335
REMARK  146  A    between atoms: _338  and  _340
REMARK  147  A    between atoms: _340  and  _341
REMARK  148  A    between atoms: _340  and  _343
REMARK  149  A    between atoms: _343  and  _344
REMARK  150  A    between atoms: _346  and  _348
REMARK  151  A    between atoms: _348  and  _349
REMARK  152  A    between atoms: _348  and  _351
REMARK  153  A    between atoms: _351  and  _352
REMARK  154  A    between atoms: _355  and  _357
REMARK  155  A    between atoms: _357  and  _358
REMARK  156  A    between atoms: _360  and  _362
REMARK  157  A    between atoms: _362  and  _363
REMARK  158  A    between atoms: _362  and  _365
REMARK  159  A    between atoms: _365  and  _366
REMARK  160  A    between atoms: _366  and  _367
REMARK  161  A    between atoms: _369  and  _371
REMARK  162  A    between atoms: _371  and  _372
REMARK  163  A    between atoms: _371  and  _374
REMARK  164  A    between atoms: _374  and  _375
REMARK  165  A    between atoms: _380  and  _382
REMARK  166  A    between atoms: _382  and  _383
REMARK  167  A    between atoms: _382  and  _385
REMARK  168  A    between atoms: _385  and  _386
REMARK  169  A    between atoms: _389  and  _391
REMARK  170  A    between atoms: _391  and  _392
REMARK  171  A    between atoms: _391  and  _394
REMARK  172  A    between atoms: _394  and  _395
REMARK  173  A    between atoms: _400  and  _402
REMARK  174  A    between atoms: _402  and  _403
REMARK  175  A    between atoms: _402  and  _405
REMARK  176  A    between atoms: _407  and  _409
REMARK  177  A    between atoms: _409  and  _410
REMARK  178  A    between atoms: _409  and  _412
REMARK  179  A    between atoms: _412  and  _413
REMARK  180  A    between atoms: _416  and  _418
REMARK  181  A    between atoms: _418  and  _419
REMARK  182  A    between atoms: _418  and  _421
REMARK  183  A    between atoms: _421  and  _422
REMARK  184  A    between atoms: _427  and  _429
REMARK  185  A    between atoms: _429  and  _430
REMARK  186  A    between atoms: _429  and  _432
REMARK  187  A    between atoms: _432  and  _433
REMARK  188  A    between atoms: _436  and  _438
REMARK  189  A    between atoms: _438  and  _439
REMARK  190  A    between atoms: _438  and  _441
REMARK  191  A    between atoms: _441  and  _442
REMARK  192  A    between atoms: _447  and  _448
REMARK  193  A    between atoms: _450  and  _452
REMARK  194  A    between atoms: _452  and  _453
REMARK  195  A    between atoms: _452  and  _455
REMARK  196  A    between atoms: _455  and  _456
REMARK  197  A    between atoms: _459  and  _461
REMARK  198  A    between atoms: _461  and  _462
REMARK  199  A    between atoms: _461  and  _464
REMARK  200  A    between atoms: _464  and  _465
REMARK  201  A    between atoms: _467  and  _469
REMARK  202  A    between atoms: _469  and  _470
REMARK  203  A    between atoms: _469  and  _472
REMARK  204  A    between atoms: _472  and  _473
REMARK  205  A    between atoms: _476  and  _478
REMARK  206  A    between atoms: _478  and  _479
REMARK  207  A    between atoms: _478  and  _481
REMARK  208  A    between atoms: _481  and  _482
REMARK  209  A    between atoms: _486  and  MN_638
REMARK  210  A    between atoms: _487  and  _489
REMARK  211  A    between atoms: _489  and  _490
REMARK  212  A    between atoms: _489  and  _492
REMARK  213  A    between atoms: _492  and  _493
REMARK  214  A    between atoms: _493  and  _494
REMARK  215  A    between atoms: _497  and  _499
REMARK  216  A    between atoms: _499  and  _500
REMARK  217  A    between atoms: _499  and  _502
REMARK  218  A    between atoms: _502  and  _503
REMARK  219  A    between atoms: _503  and  _504
REMARK  220  A    between atoms: _504  and  _505
REMARK  221  A    between atoms: _514  and  _516
REMARK  222  A    between atoms: _516  and  _517
REMARK  223  A    between atoms: _516  and  _519
REMARK  224  A    between atoms: _519  and  _520
REMARK  225  A    between atoms: _524  and  MN_638
REMARK  226  A    between atoms: _525  and  _527
REMARK  227  A    between atoms: _527  and  _528
REMARK  228  A    between atoms: _531  and  _532
REMARK  229  A    between atoms: _537  and  _539
REMARK  230  A    between atoms: _539  and  _540
REMARK  231  A    between atoms: _539  and  _542
REMARK  232  A    between atoms: _542  and  _543
REMARK  233  A    between atoms: _546  and  _548
REMARK  234  A    between atoms: _548  and  _549
REMARK  235  A    between atoms: _548  and  _551
REMARK  236  A    between atoms: _551  and  _552
REMARK  237  A    between atoms: _555  and  _557
REMARK  238  A    between atoms: _557  and  _558
REMARK  239  A    between atoms: _557  and  _560
REMARK  240  A    between atoms: _563  and  _564
REMARK  241  A    between atoms: _569  and  _571
REMARK  242  A    between atoms: _571  and  _572
REMARK  243  A    between atoms: _571  and  _574
REMARK  244  A    between atoms: _574  and  _575
REMARK  245  A    between atoms: _578  and  _580
REMARK  246  A    between atoms: _580  and  _581
REMARK  247  A    between atoms: _580  and  _583
REMARK  248  A    between atoms: _583  and  _584
REMARK  249  A    between atoms: _584  and  _585
REMARK  250  A    between atoms: _585  and  _586
REMARK  251  A    between atoms: _586  and  _587
REMARK  252  A    between atoms: _591  and  _593
REMARK  253  A    between atoms: _593  and  _594
REMARK  254  A    between atoms: _593  and  _596
REMARK  255  A    between atoms: _596  and  _597
REMARK  256  A    between atoms: _603  and  _605
REMARK  257  A    between atoms: _605  and  _606
REMARK  258  A    between atoms: _609  and  _611
REMARK  259  A    between atoms: _611  and  _612
REMARK  260  A    between atoms: _611  and  _614
REMARK  261  A    between atoms: _614  and  _615
REMARK  262  A    between atoms: _621  and  _623
REMARK  263  A    between atoms: _623  and  _624
REMARK  264  A    between atoms: _623  and  _626
REMARK  265  A    between atoms: _626  and  _627
REMARK  266  A    between atoms: _627  and  _628
REMARK  267  A    between atoms: _628  and  _629
REMARK                            x       y       z     vdW  Elec       q    Type
REMARK                         _______ _______ _______ _____ _____    ______ ____
ROOT
ATOM      1  O   HOH     1      96.909 -25.117  41.191  0.00  0.00    +0.000 OA
ENDROOT
TORSDOF 0
REMARK  Name = ../refined-set-2016/2wqp/2wqp_pocket.pdb
REMARK  267 active torsions:
REMARK  status: ('A' for Active; 'I' for Inactive)
REMARK    1  A    between atoms: _1  and  _3
REMARK    2  A    between atoms: _3  and  _4
REMARK    3  A    between atoms: _3  and  _6
REMARK    4  A    between atoms: _6  and  _7
REMARK    5  A    between atoms: _10  and  _12
REMARK    6  A    between atoms: _12  and  _13
REMARK    7  A    between atoms: _12  and  _15
REMARK    8  A    between atoms: _15  and  _16
REMARK    9  A    between atoms: _16  and  _17
REMARK   10  A    between atoms: _20  and  _22
REMARK   11  A    between atoms: _22  and  _23
REMARK   12  A    between atoms: _22  and  _25
REMARK   13  A    between atoms: _25  and  _26
REMARK   14  A    between atoms: _29  and  _31
REMARK   15  A    between atoms: _31  and  _32
REMARK   16  A    between atoms: _34  and  _36
REMARK   17  A    between atoms: _36  and  _37
REMARK   18  A    between atoms: _36  and  _39
REMARK   19  A    between atoms: _39  and  _40
REMARK   20  A    between atoms: _43  and  _45
REMARK   21  A    between atoms: _45  and  _46
REMARK   22  A    between atoms: _45  and  _48
REMARK   23  A    between atoms: _48  and  _49
REMARK   24  A    between atoms: _54  and  _56
REMARK   25  A    between atoms: _56  and  _57
REMARK   26  A    between atoms: _56  and  _59
REMARK   27  A    between atoms: _59  and  _60
REMARK   28  A    between atoms: _60  and  _61
REMARK   29  A    between atoms: _61  and  _62
REMARK   30  A    between atoms: _62  and  _63
REMARK   31  A    between atoms: _67  and  _69
REMARK   32  A    between atoms: _69  and  _70
REMARK   33  A    between atoms: _69  and  _72
REMARK   34  A    between atoms: _72  and  _73
REMARK   35  A    between atoms: _78  and  _80
REMARK   36  A    between atoms: _80  and  _81
REMARK   37  A    between atoms: _80  and  _83
REMARK   38  A    between atoms: _83  and  _84
REMARK   39  A    between atoms: _84  and  _85
REMARK   40  A    between atoms: _90  and  _92
REMARK   41  A    between atoms: _92  and  _93
REMARK   42  A    between atoms: _92  and  _95
REMARK   43  A    between atoms: _95  and  _96
REMARK   44  A    between atoms: _99  and  _101
REMARK   45  A    between atoms: _101  and  _102
REMARK   46  A    between atoms: _101  and  _104
REMARK   47  A    between atoms: _104  and  _105
REMARK   48  A    between atoms: _110  and  _112
REMARK   49  A    between atoms: _112  and  _113
REMARK   50  A    between atoms: _112  and  _115
REMARK   51  A    between atoms: _115  and  _116
REMARK   52  A    between atoms: _116  and  _117
REMARK   53  A    between atoms: _120  and  _122
REMARK   54  A    between atoms: _122  and  _123
REMARK   55  A    between atoms: _122  and  _125
REMARK   56  A    between atoms: _125  and  _126
REMARK   57  A    between atoms: _130  and  _131
REMARK   58  A    between atoms: _136  and  _138
REMARK   59  A    between atoms: _138  and  _139
REMARK   60  A    between atoms: _141  and  _143
REMARK   61  A    between atoms: _143  and  _144
REMARK   62  A    between atoms: _143  and  _146
REMARK   63  A    between atoms: _146  and  _147
REMARK   64  A    between atoms: _152  and  _154
REMARK   65  A    between atoms: _154  and  _155
REMARK   66  A    between atoms: _158  and  _160
REMARK   67  A    between atoms: _160  and  _161
REMARK   68  A    between atoms: _160  and  _163
REMARK   69  A    between atoms: _166  and  _168
REMARK   70  A    between atoms: _168  and  _169
REMARK   71  A    between atoms: _168  and  _171
REMARK   72  A    between atoms: _171  and  _172
REMARK   73  A    between atoms: _174  and  _176
REMARK   74  A    between atoms: _176  and  _177
REMARK   75  A    between atoms: _176  and  _179
REMARK   76  A    between atoms: _179  and  _180
REMARK   77  A    between atoms: _183  and  _185
REMARK   78  A    between atoms: _185  and  _186
REMARK   79  A    between atoms: _185  and  _188
REMARK   80  A    between atoms: _188  and  _189
REMARK   81  A    between atoms: _192  and  _194
REMARK   82  A    between atoms: _194  and  _195
REMARK   83  A    between atoms: _194  and  _197
REMARK   84  A    between atoms: _197  and  _198
REMARK   85  A    between atoms: _198  and  _199
REMARK   86  A    between atoms: _201  and  _203
REMARK   87  A    between atoms: _203  and  _204
REMARK   88  A    between atoms: _203  and  _206
REMARK   89  A    between atoms: _206  and  _207
REMARK   90  A    between atoms: _207  and  _208
REMARK   91  A    between atoms: _208  and  _209
REMARK   92  A    between atoms: _218  and  _220
REMARK   93  A    between atoms: _220  and  _221
REMARK   94  A    between atoms: _220  and  _223
REMARK   95  A    between atoms: _225  and  _227
REMARK   96  A    between atoms: _227  and  _228
REMARK   97  A    between atoms: _227  and  _230
REMARK   98  A    between atoms: _230  and  _231
REMARK   99  A    between atoms: _233  and  _235
REMARK  100  A    between atoms: _235  and  _236
REMARK  101  A    between atoms: _235  and  _238
REMARK  102  A    between atoms: _238  and  _239
REMARK  103  A    between atoms: _242  and  _244
REMARK  104  A    between atoms: _244  and  _245
REMARK  105  A    between atoms: _244  and  _247
REMARK  106  A    between atoms: _247  and  _248
REMARK  107  A    between atoms: _251  and  _253
REMARK  108  A    between atoms: _253  and  _254
REMARK  109  A    between atoms: _253  and  _256
REMARK  110  A    between atoms: _256  and  _257
REMARK  111  A    between atoms: _263  and  _265
REMARK  112  A    between atoms: _265  and  _266
REMARK  113  A    between atoms: _265  and  _268
REMARK  114  A    between atoms: _268  and  _269
REMARK  115  A    between atoms: _269  and  _270
REMARK  116  A    between atoms: _270  and  _271
REMARK  117  A    between atoms: _271  and  _272
REMARK  118  A    between atoms: _276  and  _278
REMARK  119  A    between atoms: _278  and  _279
REMARK  120  A    between atoms: _278  and  _281
REMARK  121  A    between atoms: _281  and  _282
REMARK  122  A    between atoms: _285  and  _287
REMARK  123  A    between atoms: _287  and  _288
REMARK  124  A    between atoms: _290  and  _292
REMARK  125  A    between atoms: _292  and  _293
REMARK  126  A    between atoms: _292  and  _295
REMARK  127  A    between atoms: _295  and  _296
REMARK  128  A    between atoms: _298  and  _300
REMARK  129  A    between atoms: _300  and  _301
REMARK  130  A    between atoms: _303  and  _305
REMARK  131  A    between atoms: _305  and  _306
REMARK  132  A    between atoms: _305  and  _308
REMARK  133  A    between atoms: _308  and  _309
REMARK  134  A    between atoms: _309  and  _310
REMARK  135  A    between atoms: _313  and  _315
REMARK  136  A    between atoms: _315  and  _316
REMARK  137  A    between atoms: _315  and  _318
REMARK  138  A    between atoms: _320  and  _322
REMARK  139  A    between atoms: _322  and  _323
REMARK  140  A    between atoms: _322  and  _325
REMARK  141  A    between atoms: _325  and  _326
REMARK  142  A    between atoms: _329  and  _331
REMARK  143  A    between atoms: _331  and  _332
REMARK  144  A    between atoms: _331  and  _334
REMARK  145  A    between atoms: _334  and  _335
REMARK  146  A    between atoms: _338  and  _340
REMARK  147  A    between atoms: _340  and  _341
REMARK  148  A    between atoms: _340  and  _343
REMARK  149  A    between atoms: _343  and  _344
REMARK  150  A    between atoms: _346  and  _348
REMARK  151  A    between atoms: _348  and  _349
REMARK  152  A    between atoms: _348  and  _351
REMARK  153  A    between atoms: _351  and  _352
REMARK  154  A    between atoms: _355  and  _357
REMARK  155  A    between atoms: _357  and  _358
REMARK  156  A    between atoms: _360  and  _362
REMARK  157  A    between atoms: _362  and  _363
REMARK  158  A    between atoms: _362  and  _365
REMARK  159  A    between atoms: _365  and  _366
REMARK  160  A    between atoms: _366  and  _367
REMARK  161  A    between atoms: _369  and  _371
REMARK  162  A    between atoms: _371  and  _372
REMARK  163  A    between atoms: _371  and  _374
REMARK  164  A    between atoms: _374  and  _375
REMARK  165  A    between atoms: _380  and  _382
REMARK  166  A    between atoms: _382  and  _383
REMARK  167  A    between atoms: _382  and  _385
REMARK  168  A    between atoms: _385  and  _386
REMARK  169  A    between atoms: _389  and  _391
REMARK  170  A    between atoms: _391  and  _392
REMARK  171  A    between atoms: _391  and  _394
REMARK  172  A    between atoms: _394  and  _395
REMARK  173  A    between atoms: _400  and  _402
REMARK  174  A    between atoms: _402  and  _403
REMARK  175  A    between atoms: _402  and  _405
REMARK  176  A    between atoms: _407  and  _409
REMARK  177  A    between atoms: _409  and  _410
REMARK  178  A    between atoms: _409  and  _412
REMARK  179  A    between atoms: _412  and  _413
REMARK  180  A    between atoms: _416  and  _418
REMARK  181  A    between atoms: _418  and  _419
REMARK  182  A    between atoms: _418  and  _421
REMARK  183  A    between atoms: _421  and  _422
REMARK  184  A    between atoms: _427  and  _429
REMARK  185  A    between atoms: _429  and  _430
REMARK  186  A    between atoms: _429  and  _432
REMARK  187  A    between atoms: _432  and  _433
REMARK  188  A    between atoms: _436  and  _438
REMARK  189  A    between atoms: _438  and  _439
REMARK  190  A    between atoms: _438  and  _441
REMARK  191  A    between atoms: _441  and  _442
REMARK  192  A    between atoms: _447  and  _448
REMARK  193  A    between atoms: _450  and  _452
REMARK  194  A    between atoms: _452  and  _453
REMARK  195  A    between atoms: _452  and  _455
REMARK  196  A    between atoms: _455  and  _456
REMARK  197  A    between atoms: _459  and  _461
REMARK  198  A    between atoms: _461  and  _462
REMARK  199  A    between atoms: _461  and  _464
REMARK  200  A    between atoms: _464  and  _465
REMARK  201  A    between atoms: _467  and  _469
REMARK  202  A    between atoms: _469  and  _470
REMARK  203  A    between atoms: _469  and  _472
REMARK  204  A    between atoms: _472  and  _473
REMARK  205  A    between atoms: _476  and  _478
REMARK  206  A    between atoms: _478  and  _479
REMARK  207  A    between atoms: _478  and  _481
REMARK  208  A    between atoms: _481  and  _482
REMARK  209  A    between atoms: _486  and  MN_638
REMARK  210  A    between atoms: _487  and  _489
REMARK  211  A    between atoms: _489  and  _490
REMARK  212  A    between atoms: _489  and  _492
REMARK  213  A    between atoms: _492  and  _493
REMARK  214  A    between atoms: _493  and  _494
REMARK  215  A    between atoms: _497  and  _499
REMARK  216  A    between atoms: _499  and  _500
REMARK  217  A    between atoms: _499  and  _502
REMARK  218  A    between atoms: _502  and  _503
REMARK  219  A    between atoms: _503  and  _504
REMARK  220  A    between atoms: _504  and  _505
REMARK  221  A    between atoms: _514  and  _516
REMARK  222  A    between atoms: _516  and  _517
REMARK  223  A    between atoms: _516  and  _519
REMARK  224  A    between atoms: _519  and  _520
REMARK  225  A    between atoms: _524  and  MN_638
REMARK  226  A    between atoms: _525  and  _527
REMARK  227  A    between atoms: _527  and  _528
REMARK  228  A    between atoms: _531  and  _532
REMARK  229  A    between atoms: _537  and  _539
REMARK  230  A    between atoms: _539  and  _540
REMARK  231  A    between atoms: _539  and  _542
REMARK  232  A    between atoms: _542  and  _543
REMARK  233  A    between atoms: _546  and  _548
REMARK  234  A    between atoms: _548  and  _549
REMARK  235  A    between atoms: _548  and  _551
REMARK  236  A    between atoms: _551  and  _552
REMARK  237  A    between atoms: _555  and  _557
REMARK  238  A    between atoms: _557  and  _558
REMARK  239  A    between atoms: _557  and  _560
REMARK  240  A    between atoms: _563  and  _564
REMARK  241  A    between atoms: _569  and  _571
REMARK  242  A    between atoms: _571  and  _572
REMARK  243  A    between atoms: _571  and  _574
REMARK  244  A    between atoms: _574  and  _575
REMARK  245  A    between atoms: _578  and  _580
REMARK  246  A    between atoms: _580  and  _581
REMARK  247  A    between atoms: _580  and  _583
REMARK  248  A    between atoms: _583  and  _584
REMARK  249  A    between atoms: _584  and  _585
REMARK  250  A    between atoms: _585  and  _586
REMARK  251  A    between atoms: _586  and  _587
REMARK  252  A    between atoms: _591  and  _593
REMARK  253  A    between atoms: _593  and  _594
REMARK  254  A    between atoms: _593  and  _596
REMARK  255  A    between atoms: _596  and  _597
REMARK  256  A    between atoms: _603  and  _605
REMARK  257  A    between atoms: _605  and  _606
REMARK  258  A    between atoms: _609  and  _611
REMARK  259  A    between atoms: _611  and  _612
REMARK  260  A    between atoms: _611  and  _614
REMARK  261  A    between atoms: _614  and  _615
REMARK  262  A    between atoms: _621  and  _623
REMARK  263  A    between atoms: _623  and  _624
REMARK  264  A    between atoms: _623  and  _626
REMARK  265  A    between atoms: _626  and  _627
REMARK  266  A    between atoms: _627  and  _628
REMARK  267  A    between atoms: _628  and  _629
REMARK                            x       y       z     vdW  Elec       q    Type
REMARK                         _______ _______ _______ _____ _____    ______ ____
ROOT
ATOM      1  O   HOH     1      95.380 -22.992  41.938  0.00  0.00    +0.000 OA
ENDROOT
TORSDOF 0
REMARK  Name = ../refined-set-2016/2wqp/2wqp_pocket.pdb
REMARK  267 active torsions:
REMARK  status: ('A' for Active; 'I' for Inactive)
REMARK    1  A    between atoms: _1  and  _3
REMARK    2  A    between atoms: _3  and  _4
REMARK    3  A    between atoms: _3  and  _6
REMARK    4  A    between atoms: _6  and  _7
REMARK    5  A    between atoms: _10  and  _12
REMARK    6  A    between atoms: _12  and  _13
REMARK    7  A    between atoms: _12  and  _15
REMARK    8  A    between atoms: _15  and  _16
REMARK    9  A    between atoms: _16  and  _17
REMARK   10  A    between atoms: _20  and  _22
REMARK   11  A    between atoms: _22  and  _23
REMARK   12  A    between atoms: _22  and  _25
REMARK   13  A    between atoms: _25  and  _26
REMARK   14  A    between atoms: _29  and  _31
REMARK   15  A    between atoms: _31  and  _32
REMARK   16  A    between atoms: _34  and  _36
REMARK   17  A    between atoms: _36  and  _37
REMARK   18  A    between atoms: _36  and  _39
REMARK   19  A    between atoms: _39  and  _40
REMARK   20  A    between atoms: _43  and  _45
REMARK   21  A    between atoms: _45  and  _46
REMARK   22  A    between atoms: _45  and  _48
REMARK   23  A    between atoms: _48  and  _49
REMARK   24  A    between atoms: _54  and  _56
REMARK   25  A    between atoms: _56  and  _57
REMARK   26  A    between atoms: _56  and  _59
REMARK   27  A    between atoms: _59  and  _60
REMARK   28  A    between atoms: _60  and  _61
REMARK   29  A    between atoms: _61  and  _62
REMARK   30  A    between atoms: _62  and  _63
REMARK   31  A    between atoms: _67  and  _69
REMARK   32  A    between atoms: _69  and  _70
REMARK   33  A    between atoms: _69  and  _72
REMARK   34  A    between atoms: _72  and  _73
REMARK   35  A    between atoms: _78  and  _80
REMARK   36  A    between atoms: _80  and  _81
REMARK   37  A    between atoms: _80  and  _83
REMARK   38  A    between atoms: _83  and  _84
REMARK   39  A    between atoms: _84  and  _85
REMARK   40  A    between atoms: _90  and  _92
REMARK   41  A    between atoms: _92  and  _93
REMARK   42  A    between atoms: _92  and  _95
REMARK   43  A    between atoms: _95  and  _96
REMARK   44  A    between atoms: _99  and  _101
REMARK   45  A    between atoms: _101  and  _102
REMARK   46  A    between atoms: _101  and  _104
REMARK   47  A    between atoms: _104  and  _105
REMARK   48  A    between atoms: _110  and  _112
REMARK   49  A    between atoms: _112  and  _113
REMARK   50  A    between atoms: _112  and  _115
REMARK   51  A    between atoms: _115  and  _116
REMARK   52  A    between atoms: _116  and  _117
REMARK   53  A    between atoms: _120  and  _122
REMARK   54  A    between atoms: _122  and  _123
REMARK   55  A    between atoms: _122  and  _125
REMARK   56  A    between atoms: _125  and  _126
REMARK   57  A    between atoms: _130  and  _131
REMARK   58  A    between atoms: _136  and  _138
REMARK   59  A    between atoms: _138  and  _139
REMARK   60  A    between atoms: _141  and  _143
REMARK   61  A    between atoms: _143  and  _144
REMARK   62  A    between atoms: _143  and  _146
REMARK   63  A    between atoms: _146  and  _147
REMARK   64  A    between atoms: _152  and  _154
REMARK   65  A    between atoms: _154  and  _155
REMARK   66  A    between atoms: _158  and  _160
REMARK   67  A    between atoms: _160  and  _161
REMARK   68  A    between atoms: _160  and  _163
REMARK   69  A    between atoms: _166  and  _168
REMARK   70  A    between atoms: _168  and  _169
REMARK   71  A    between atoms: _168  and  _171
REMARK   72  A    between atoms: _171  and  _172
REMARK   73  A    between atoms: _174  and  _176
REMARK   74  A    between atoms: _176  and  _177
REMARK   75  A    between atoms: _176  and  _179
REMARK   76  A    between atoms: _179  and  _180
REMARK   77  A    between atoms: _183  and  _185
REMARK   78  A    between atoms: _185  and  _186
REMARK   79  A    between atoms: _185  and  _188
REMARK   80  A    between atoms: _188  and  _189
REMARK   81  A    between atoms: _192  and  _194
REMARK   82  A    between atoms: _194  and  _195
REMARK   83  A    between atoms: _194  and  _197
REMARK   84  A    between atoms: _197  and  _198
REMARK   85  A    between atoms: _198  and  _199
REMARK   86  A    between atoms: _201  and  _203
REMARK   87  A    between atoms: _203  and  _204
REMARK   88  A    between atoms: _203  and  _206
REMARK   89  A    between atoms: _206  and  _207
REMARK   90  A    between atoms: _207  and  _208
REMARK   91  A    between atoms: _208  and  _209
REMARK   92  A    between atoms: _218  and  _220
REMARK   93  A    between atoms: _220  and  _221
REMARK   94  A    between atoms: _220  and  _223
REMARK   95  A    between atoms: _225  and  _227
REMARK   96  A    between atoms: _227  and  _228
REMARK   97  A    between atoms: _227  and  _230
REMARK   98  A    between atoms: _230  and  _231
REMARK   99  A    between atoms: _233  and  _235
REMARK  100  A    between atoms: _235  and  _236
REMARK  101  A    between atoms: _235  and  _238
REMARK  102  A    between atoms: _238  and  _239
REMARK  103  A    between atoms: _242  and  _244
REMARK  104  A    between atoms: _244  and  _245
REMARK  105  A    between atoms: _244  and  _247
REMARK  106  A    between atoms: _247  and  _248
REMARK  107  A    between atoms: _251  and  _253
REMARK  108  A    between atoms: _253  and  _254
REMARK  109  A    between atoms: _253  and  _256
REMARK  110  A    between atoms: _256  and  _257
REMARK  111  A    between atoms: _263  and  _265
REMARK  112  A    between atoms: _265  and  _266
REMARK  113  A    between atoms: _265  and  _268
REMARK  114  A    between atoms: _268  and  _269
REMARK  115  A    between atoms: _269  and  _270
REMARK  116  A    between atoms: _270  and  _271
REMARK  117  A    between atoms: _271  and  _272
REMARK  118  A    between atoms: _276  and  _278
REMARK  119  A    between atoms: _278  and  _279
REMARK  120  A    between atoms: _278  and  _281
REMARK  121  A    between atoms: _281  and  _282
REMARK  122  A    between atoms: _285  and  _287
REMARK  123  A    between atoms: _287  and  _288
REMARK  124  A    between atoms: _290  and  _292
REMARK  125  A    between atoms: _292  and  _293
REMARK  126  A    between atoms: _292  and  _295
REMARK  127  A    between atoms: _295  and  _296
REMARK  128  A    between atoms: _298  and  _300
REMARK  129  A    between atoms: _300  and  _301
REMARK  130  A    between atoms: _303  and  _305
REMARK  131  A    between atoms: _305  and  _306
REMARK  132  A    between atoms: _305  and  _308
REMARK  133  A    between atoms: _308  and  _309
REMARK  134  A    between atoms: _309  and  _310
REMARK  135  A    between atoms: _313  and  _315
REMARK  136  A    between atoms: _315  and  _316
REMARK  137  A    between atoms: _315  and  _318
REMARK  138  A    between atoms: _320  and  _322
REMARK  139  A    between atoms: _322  and  _323
REMARK  140  A    between atoms: _322  and  _325
REMARK  141  A    between atoms: _325  and  _326
REMARK  142  A    between atoms: _329  and  _331
REMARK  143  A    between atoms: _331  and  _332
REMARK  144  A    between atoms: _331  and  _334
REMARK  145  A    between atoms: _334  and  _335
REMARK  146  A    between atoms: _338  and  _340
REMARK  147  A    between atoms: _340  and  _341
REMARK  148  A    between atoms: _340  and  _343
REMARK  149  A    between atoms: _343  and  _344
REMARK  150  A    between atoms: _346  and  _348
REMARK  151  A    between atoms: _348  and  _349
REMARK  152  A    between atoms: _348  and  _351
REMARK  153  A    between atoms: _351  and  _352
REMARK  154  A    between atoms: _355  and  _357
REMARK  155  A    between atoms: _357  and  _358
REMARK  156  A    between atoms: _360  and  _362
REMARK  157  A    between atoms: _362  and  _363
REMARK  158  A    between atoms: _362  and  _365
REMARK  159  A    between atoms: _365  and  _366
REMARK  160  A    between atoms: _366  and  _367
REMARK  161  A    between atoms: _369  and  _371
REMARK  162  A    between atoms: _371  and  _372
REMARK  163  A    between atoms: _371  and  _374
REMARK  164  A    between atoms: _374  and  _375
REMARK  165  A    between atoms: _380  and  _382
REMARK  166  A    between atoms: _382  and  _383
REMARK  167  A    between atoms: _382  and  _385
REMARK  168  A    between atoms: _385  and  _386
REMARK  169  A    between atoms: _389  and  _391
REMARK  170  A    between atoms: _391  and  _392
REMARK  171  A    between atoms: _391  and  _394
REMARK  172  A    between atoms: _394  and  _395
REMARK  173  A    between atoms: _400  and  _402
REMARK  174  A    between atoms: _402  and  _403
REMARK  175  A    between atoms: _402  and  _405
REMARK  176  A    between atoms: _407  and  _409
REMARK  177  A    between atoms: _409  and  _410
REMARK  178  A    between atoms: _409  and  _412
REMARK  179  A    between atoms: _412  and  _413
REMARK  180  A    between atoms: _416  and  _418
REMARK  181  A    between atoms: _418  and  _419
REMARK  182  A    between atoms: _418  and  _421
REMARK  183  A    between atoms: _421  and  _422
REMARK  184  A    between atoms: _427  and  _429
REMARK  185  A    between atoms: _429  and  _430
REMARK  186  A    between atoms: _429  and  _432
REMARK  187  A    between atoms: _432  and  _433
REMARK  188  A    between atoms: _436  and  _438
REMARK  189  A    between atoms: _438  and  _439
REMARK  190  A    between atoms: _438  and  _441
REMARK  191  A    between atoms: _441  and  _442
REMARK  192  A    between atoms: _447  and  _448
REMARK  193  A    between atoms: _450  and  _452
REMARK  194  A    between atoms: _452  and  _453
REMARK  195  A    between atoms: _452  and  _455
REMARK  196  A    between atoms: _455  and  _456
REMARK  197  A    between atoms: _459  and  _461
REMARK  198  A    between atoms: _461  and  _462
REMARK  199  A    between atoms: _461  and  _464
REMARK  200  A    between atoms: _464  and  _465
REMARK  201  A    between atoms: _467  and  _469
REMARK  202  A    between atoms: _469  and  _470
REMARK  203  A    between atoms: _469  and  _472
REMARK  204  A    between atoms: _472  and  _473
REMARK  205  A    between atoms: _476  and  _478
REMARK  206  A    between atoms: _478  and  _479
REMARK  207  A    between atoms: _478  and  _481
REMARK  208  A    between atoms: _481  and  _482
REMARK  209  A    between atoms: _486  and  MN_638
REMARK  210  A    between atoms: _487  and  _489
REMARK  211  A    between atoms: _489  and  _490
REMARK  212  A    between atoms: _489  and  _492
REMARK  213  A    between atoms: _492  and  _493
REMARK  214  A    between atoms: _493  and  _494
REMARK  215  A    between atoms: _497  and  _499
REMARK  216  A    between atoms: _499  and  _500
REMARK  217  A    between atoms: _499  and  _502
REMARK  218  A    between atoms: _502  and  _503
REMARK  219  A    between atoms: _503  and  _504
REMARK  220  A    between atoms: _504  and  _505
REMARK  221  A    between atoms: _514  and  _516
REMARK  222  A    between atoms: _516  and  _517
REMARK  223  A    between atoms: _516  and  _519
REMARK  224  A    between atoms: _519  and  _520
REMARK  225  A    between atoms: _524  and  MN_638
REMARK  226  A    between atoms: _525  and  _527
REMARK  227  A    between atoms: _527  and  _528
REMARK  228  A    between atoms: _531  and  _532
REMARK  229  A    between atoms: _537  and  _539
REMARK  230  A    between atoms: _539  and  _540
REMARK  231  A    between atoms: _539  and  _542
REMARK  232  A    between atoms: _542  and  _543
REMARK  233  A    between atoms: _546  and  _548
REMARK  234  A    between atoms: _548  and  _549
REMARK  235  A    between atoms: _548  and  _551
REMARK  236  A    between atoms: _551  and  _552
REMARK  237  A    between atoms: _555  and  _557
REMARK  238  A    between atoms: _557  and  _558
REMARK  239  A    between atoms: _557  and  _560
REMARK  240  A    between atoms: _563  and  _564
REMARK  241  A    between atoms: _569  and  _571
REMARK  242  A    between atoms: _571  and  _572
REMARK  243  A    between atoms: _571  and  _574
REMARK  244  A    between atoms: _574  and  _575
REMARK  245  A    between atoms: _578  and  _580
REMARK  246  A    between atoms: _580  and  _581
REMARK  247  A    between atoms: _580  and  _583
REMARK  248  A    between atoms: _583  and  _584
REMARK  249  A    between atoms: _584  and  _585
REMARK  250  A    between atoms: _585  and  _586
REMARK  251  A    between atoms: _586  and  _587
REMARK  252  A    between atoms: _591  and  _593
REMARK  253  A    between atoms: _593  and  _594
REMARK  254  A    between atoms: _593  and  _596
REMARK  255  A    between atoms: _596  and  _597
REMARK  256  A    between atoms: _603  and  _605
REMARK  257  A    between atoms: _605  and  _606
REMARK  258  A    between atoms: _609  and  _611
REMARK  259  A    between atoms: _611  and  _612
REMARK  260  A    between atoms: _611  and  _614
REMARK  261  A    between atoms: _614  and  _615
REMARK  262  A    between atoms: _621  and  _623
REMARK  263  A    between atoms: _623  and  _624
REMARK  264  A    between atoms: _623  and  _626
REMARK  265  A    between atoms: _626  and  _627
REMARK  266  A    between atoms: _627  and  _628
REMARK  267  A    between atoms: _628  and  _629
REMARK                            x       y       z     vdW  Elec       q    Type
REMARK                         _______ _______ _______ _____ _____    ______ ____
ROOT
ATOM      1  O   HOH     1     103.391 -24.925  45.678  0.00  0.00    +0.000 OA
ENDROOT
TORSDOF 0
REMARK  Name = ../refined-set-2016/2wqp/2wqp_pocket.pdb
REMARK  267 active torsions:
REMARK  status: ('A' for Active; 'I' for Inactive)
REMARK    1  A    between atoms: _1  and  _3
REMARK    2  A    between atoms: _3  and  _4
REMARK    3  A    between atoms: _3  and  _6
REMARK    4  A    between atoms: _6  and  _7
REMARK    5  A    between atoms: _10  and  _12
REMARK    6  A    between atoms: _12  and  _13
REMARK    7  A    between atoms: _12  and  _15
REMARK    8  A    between atoms: _15  and  _16
REMARK    9  A    between atoms: _16  and  _17
REMARK   10  A    between atoms: _20  and  _22
REMARK   11  A    between atoms: _22  and  _23
REMARK   12  A    between atoms: _22  and  _25
REMARK   13  A    between atoms: _25  and  _26
REMARK   14  A    between atoms: _29  and  _31
REMARK   15  A    between atoms: _31  and  _32
REMARK   16  A    between atoms: _34  and  _36
REMARK   17  A    between atoms: _36  and  _37
REMARK   18  A    between atoms: _36  and  _39
REMARK   19  A    between atoms: _39  and  _40
REMARK   20  A    between atoms: _43  and  _45
REMARK   21  A    between atoms: _45  and  _46
REMARK   22  A    between atoms: _45  and  _48
REMARK   23  A    between atoms: _48  and  _49
REMARK   24  A    between atoms: _54  and  _56
REMARK   25  A    between atoms: _56  and  _57
REMARK   26  A    between atoms: _56  and  _59
REMARK   27  A    between atoms: _59  and  _60
REMARK   28  A    between atoms: _60  and  _61
REMARK   29  A    between atoms: _61  and  _62
REMARK   30  A    between atoms: _62  and  _63
REMARK   31  A    between atoms: _67  and  _69
REMARK   32  A    between atoms: _69  and  _70
REMARK   33  A    between atoms: _69  and  _72
REMARK   34  A    between atoms: _72  and  _73
REMARK   35  A    between atoms: _78  and  _80
REMARK   36  A    between atoms: _80  and  _81
REMARK   37  A    between atoms: _80  and  _83
REMARK   38  A    between atoms: _83  and  _84
REMARK   39  A    between atoms: _84  and  _85
REMARK   40  A    between atoms: _90  and  _92
REMARK   41  A    between atoms: _92  and  _93
REMARK   42  A    between atoms: _92  and  _95
REMARK   43  A    between atoms: _95  and  _96
REMARK   44  A    between atoms: _99  and  _101
REMARK   45  A    between atoms: _101  and  _102
REMARK   46  A    between atoms: _101  and  _104
REMARK   47  A    between atoms: _104  and  _105
REMARK   48  A    between atoms: _110  and  _112
REMARK   49  A    between atoms: _112  and  _113
REMARK   50  A    between atoms: _112  and  _115
REMARK   51  A    between atoms: _115  and  _116
REMARK   52  A    between atoms: _116  and  _117
REMARK   53  A    between atoms: _120  and  _122
REMARK   54  A    between atoms: _122  and  _123
REMARK   55  A    between atoms: _122  and  _125
REMARK   56  A    between atoms: _125  and  _126
REMARK   57  A    between atoms: _130  and  _131
REMARK   58  A    between atoms: _136  and  _138
REMARK   59  A    between atoms: _138  and  _139
REMARK   60  A    between atoms: _141  and  _143
REMARK   61  A    between atoms: _143  and  _144
REMARK   62  A    between atoms: _143  and  _146
REMARK   63  A    between atoms: _146  and  _147
REMARK   64  A    between atoms: _152  and  _154
REMARK   65  A    between atoms: _154  and  _155
REMARK   66  A    between atoms: _158  and  _160
REMARK   67  A    between atoms: _160  and  _161
REMARK   68  A    between atoms: _160  and  _163
REMARK   69  A    between atoms: _166  and  _168
REMARK   70  A    between atoms: _168  and  _169
REMARK   71  A    between atoms: _168  and  _171
REMARK   72  A    between atoms: _171  and  _172
REMARK   73  A    between atoms: _174  and  _176
REMARK   74  A    between atoms: _176  and  _177
REMARK   75  A    between atoms: _176  and  _179
REMARK   76  A    between atoms: _179  and  _180
REMARK   77  A    between atoms: _183  and  _185
REMARK   78  A    between atoms: _185  and  _186
REMARK   79  A    between atoms: _185  and  _188
REMARK   80  A    between atoms: _188  and  _189
REMARK   81  A    between atoms: _192  and  _194
REMARK   82  A    between atoms: _194  and  _195
REMARK   83  A    between atoms: _194  and  _197
REMARK   84  A    between atoms: _197  and  _198
REMARK   85  A    between atoms: _198  and  _199
REMARK   86  A    between atoms: _201  and  _203
REMARK   87  A    between atoms: _203  and  _204
REMARK   88  A    between atoms: _203  and  _206
REMARK   89  A    between atoms: _206  and  _207
REMARK   90  A    between atoms: _207  and  _208
REMARK   91  A    between atoms: _208  and  _209
REMARK   92  A    between atoms: _218  and  _220
REMARK   93  A    between atoms: _220  and  _221
REMARK   94  A    between atoms: _220  and  _223
REMARK   95  A    between atoms: _225  and  _227
REMARK   96  A    between atoms: _227  and  _228
REMARK   97  A    between atoms: _227  and  _230
REMARK   98  A    between atoms: _230  and  _231
REMARK   99  A    between atoms: _233  and  _235
REMARK  100  A    between atoms: _235  and  _236
REMARK  101  A    between atoms: _235  and  _238
REMARK  102  A    between atoms: _238  and  _239
REMARK  103  A    between atoms: _242  and  _244
REMARK  104  A    between atoms: _244  and  _245
REMARK  105  A    between atoms: _244  and  _247
REMARK  106  A    between atoms: _247  and  _248
REMARK  107  A    between atoms: _251  and  _253
REMARK  108  A    between atoms: _253  and  _254
REMARK  109  A    between atoms: _253  and  _256
REMARK  110  A    between atoms: _256  and  _257
REMARK  111  A    between atoms: _263  and  _265
REMARK  112  A    between atoms: _265  and  _266
REMARK  113  A    between atoms: _265  and  _268
REMARK  114  A    between atoms: _268  and  _269
REMARK  115  A    between atoms: _269  and  _270
REMARK  116  A    between atoms: _270  and  _271
REMARK  117  A    between atoms: _271  and  _272
REMARK  118  A    between atoms: _276  and  _278
REMARK  119  A    between atoms: _278  and  _279
REMARK  120  A    between atoms: _278  and  _281
REMARK  121  A    between atoms: _281  and  _282
REMARK  122  A    between atoms: _285  and  _287
REMARK  123  A    between atoms: _287  and  _288
REMARK  124  A    between atoms: _290  and  _292
REMARK  125  A    between atoms: _292  and  _293
REMARK  126  A    between atoms: _292  and  _295
REMARK  127  A    between atoms: _295  and  _296
REMARK  128  A    between atoms: _298  and  _300
REMARK  129  A    between atoms: _300  and  _301
REMARK  130  A    between atoms: _303  and  _305
REMARK  131  A    between atoms: _305  and  _306
REMARK  132  A    between atoms: _305  and  _308
REMARK  133  A    between atoms: _308  and  _309
REMARK  134  A    between atoms: _309  and  _310
REMARK  135  A    between atoms: _313  and  _315
REMARK  136  A    between atoms: _315  and  _316
REMARK  137  A    between atoms: _315  and  _318
REMARK  138  A    between atoms: _320  and  _322
REMARK  139  A    between atoms: _322  and  _323
REMARK  140  A    between atoms: _322  and  _325
REMARK  141  A    between atoms: _325  and  _326
REMARK  142  A    between atoms: _329  and  _331
REMARK  143  A    between atoms: _331  and  _332
REMARK  144  A    between atoms: _331  and  _334
REMARK  145  A    between atoms: _334  and  _335
REMARK  146  A    between atoms: _338  and  _340
REMARK  147  A    between atoms: _340  and  _341
REMARK  148  A    between atoms: _340  and  _343
REMARK  149  A    between atoms: _343  and  _344
REMARK  150  A    between atoms: _346  and  _348
REMARK  151  A    between atoms: _348  and  _349
REMARK  152  A    between atoms: _348  and  _351
REMARK  153  A    between atoms: _351  and  _352
REMARK  154  A    between atoms: _355  and  _357
REMARK  155  A    between atoms: _357  and  _358
REMARK  156  A    between atoms: _360  and  _362
REMARK  157  A    between atoms: _362  and  _363
REMARK  158  A    between atoms: _362  and  _365
REMARK  159  A    between atoms: _365  and  _366
REMARK  160  A    between atoms: _366  and  _367
REMARK  161  A    between atoms: _369  and  _371
REMARK  162  A    between atoms: _371  and  _372
REMARK  163  A    between atoms: _371  and  _374
REMARK  164  A    between atoms: _374  and  _375
REMARK  165  A    between atoms: _380  and  _382
REMARK  166  A    between atoms: _382  and  _383
REMARK  167  A    between atoms: _382  and  _385
REMARK  168  A    between atoms: _385  and  _386
REMARK  169  A    between atoms: _389  and  _391
REMARK  170  A    between atoms: _391  and  _392
REMARK  171  A    between atoms: _391  and  _394
REMARK  172  A    between atoms: _394  and  _395
REMARK  173  A    between atoms: _400  and  _402
REMARK  174  A    between atoms: _402  and  _403
REMARK  175  A    between atoms: _402  and  _405
REMARK  176  A    between atoms: _407  and  _409
REMARK  177  A    between atoms: _409  and  _410
REMARK  178  A    between atoms: _409  and  _412
REMARK  179  A    between atoms: _412  and  _413
REMARK  180  A    between atoms: _416  and  _418
REMARK  181  A    between atoms: _418  and  _419
REMARK  182  A    between atoms: _418  and  _421
REMARK  183  A    between atoms: _421  and  _422
REMARK  184  A    between atoms: _427  and  _429
REMARK  185  A    between atoms: _429  and  _430
REMARK  186  A    between atoms: _429  and  _432
REMARK  187  A    between atoms: _432  and  _433
REMARK  188  A    between atoms: _436  and  _438
REMARK  189  A    between atoms: _438  and  _439
REMARK  190  A    between atoms: _438  and  _441
REMARK  191  A    between atoms: _441  and  _442
REMARK  192  A    between atoms: _447  and  _448
REMARK  193  A    between atoms: _450  and  _452
REMARK  194  A    between atoms: _452  and  _453
REMARK  195  A    between atoms: _452  and  _455
REMARK  196  A    between atoms: _455  and  _456
REMARK  197  A    between atoms: _459  and  _461
REMARK  198  A    between atoms: _461  and  _462
REMARK  199  A    between atoms: _461  and  _464
REMARK  200  A    between atoms: _464  and  _465
REMARK  201  A    between atoms: _467  and  _469
REMARK  202  A    between atoms: _469  and  _470
REMARK  203  A    between atoms: _469  and  _472
REMARK  204  A    between atoms: _472  and  _473
REMARK  205  A    between atoms: _476  and  _478
REMARK  206  A    between atoms: _478  and  _479
REMARK  207  A    between atoms: _478  and  _481
REMARK  208  A    between atoms: _481  and  _482
REMARK  209  A    between atoms: _486  and  MN_638
REMARK  210  A    between atoms: _487  and  _489
REMARK  211  A    between atoms: _489  and  _490
REMARK  212  A    between atoms: _489  and  _492
REMARK  213  A    between atoms: _492  and  _493
REMARK  214  A    between atoms: _493  and  _494
REMARK  215  A    between atoms: _497  and  _499
REMARK  216  A    between atoms: _499  and  _500
REMARK  217  A    between atoms: _499  and  _502
REMARK  218  A    between atoms: _502  and  _503
REMARK  219  A    between atoms: _503  and  _504
REMARK  220  A    between atoms: _504  and  _505
REMARK  221  A    between atoms: _514  and  _516
REMARK  222  A    between atoms: _516  and  _517
REMARK  223  A    between atoms: _516  and  _519
REMARK  224  A    between atoms: _519  and  _520
REMARK  225  A    between atoms: _524  and  MN_638
REMARK  226  A    between atoms: _525  and  _527
REMARK  227  A    between atoms: _527  and  _528
REMARK  228  A    between atoms: _531  and  _532
REMARK  229  A    between atoms: _537  and  _539
REMARK  230  A    between atoms: _539  and  _540
REMARK  231  A    between atoms: _539  and  _542
REMARK  232  A    between atoms: _542  and  _543
REMARK  233  A    between atoms: _546  and  _548
REMARK  234  A    between atoms: _548  and  _549
REMARK  235  A    between atoms: _548  and  _551
REMARK  236  A    between atoms: _551  and  _552
REMARK  237  A    between atoms: _555  and  _557
REMARK  238  A    between atoms: _557  and  _558
REMARK  239  A    between atoms: _557  and  _560
REMARK  240  A    between atoms: _563  and  _564
REMARK  241  A    between atoms: _569  and  _571
REMARK  242  A    between atoms: _571  and  _572
REMARK  243  A    between atoms: _571  and  _574
REMARK  244  A    between atoms: _574  and  _575
REMARK  245  A    between atoms: _578  and  _580
REMARK  246  A    between atoms: _580  and  _581
REMARK  247  A    between atoms: _580  and  _583
REMARK  248  A    between atoms: _583  and  _584
REMARK  249  A    between atoms: _584  and  _585
REMARK  250  A    between atoms: _585  and  _586
REMARK  251  A    between atoms: _586  and  _587
REMARK  252  A    between atoms: _591  and  _593
REMARK  253  A    between atoms: _593  and  _594
REMARK  254  A    between atoms: _593  and  _596
REMARK  255  A    between atoms: _596  and  _597
REMARK  256  A    between atoms: _603  and  _605
REMARK  257  A    between atoms: _605  and  _606
REMARK  258  A    between atoms: _609  and  _611
REMARK  259  A    between atoms: _611  and  _612
REMARK  260  A    between atoms: _611  and  _614
REMARK  261  A    between atoms: _614  and  _615
REMARK  262  A    between atoms: _621  and  _623
REMARK  263  A    between atoms: _623  and  _624
REMARK  264  A    between atoms: _623  and  _626
REMARK  265  A    between atoms: _626  and  _627
REMARK  266  A    between atoms: _627  and  _628
REMARK  267  A    between atoms: _628  and  _629
REMARK                            x       y       z     vdW  Elec       q    Type
REMARK                         _______ _______ _______ _____ _____    ______ ____
ROOT
ATOM      1  O   HOH     1      98.550 -31.326  51.954  0.00  0.00    +0.000 OA
ENDROOT
TORSDOF 0
REMARK  Name = ../refined-set-2016/2wqp/2wqp_pocket.pdb
REMARK  267 active torsions:
REMARK  status: ('A' for Active; 'I' for Inactive)
REMARK    1  A    between atoms: _1  and  _3
REMARK    2  A    between atoms: _3  and  _4
REMARK    3  A    between atoms: _3  and  _6
REMARK    4  A    between atoms: _6  and  _7
REMARK    5  A    between atoms: _10  and  _12
REMARK    6  A    between atoms: _12  and  _13
REMARK    7  A    between atoms: _12  and  _15
REMARK    8  A    between atoms: _15  and  _16
REMARK    9  A    between atoms: _16  and  _17
REMARK   10  A    between atoms: _20  and  _22
REMARK   11  A    between atoms: _22  and  _23
REMARK   12  A    between atoms: _22  and  _25
REMARK   13  A    between atoms: _25  and  _26
REMARK   14  A    between atoms: _29  and  _31
REMARK   15  A    between atoms: _31  and  _32
REMARK   16  A    between atoms: _34  and  _36
REMARK   17  A    between atoms: _36  and  _37
REMARK   18  A    between atoms: _36  and  _39
REMARK   19  A    between atoms: _39  and  _40
REMARK   20  A    between atoms: _43  and  _45
REMARK   21  A    between atoms: _45  and  _46
REMARK   22  A    between atoms: _45  and  _48
REMARK   23  A    between atoms: _48  and  _49
REMARK   24  A    between atoms: _54  and  _56
REMARK   25  A    between atoms: _56  and  _57
REMARK   26  A    between atoms: _56  and  _59
REMARK   27  A    between atoms: _59  and  _60
REMARK   28  A    between atoms: _60  and  _61
REMARK   29  A    between atoms: _61  and  _62
REMARK   30  A    between atoms: _62  and  _63
REMARK   31  A    between atoms: _67  and  _69
REMARK   32  A    between atoms: _69  and  _70
REMARK   33  A    between atoms: _69  and  _72
REMARK   34  A    between atoms: _72  and  _73
REMARK   35  A    between atoms: _78  and  _80
REMARK   36  A    between atoms: _80  and  _81
REMARK   37  A    between atoms: _80  and  _83
REMARK   38  A    between atoms: _83  and  _84
REMARK   39  A    between atoms: _84  and  _85
REMARK   40  A    between atoms: _90  and  _92
REMARK   41  A    between atoms: _92  and  _93
REMARK   42  A    between atoms: _92  and  _95
REMARK   43  A    between atoms: _95  and  _96
REMARK   44  A    between atoms: _99  and  _101
REMARK   45  A    between atoms: _101  and  _102
REMARK   46  A    between atoms: _101  and  _104
REMARK   47  A    between atoms: _104  and  _105
REMARK   48  A    between atoms: _110  and  _112
REMARK   49  A    between atoms: _112  and  _113
REMARK   50  A    between atoms: _112  and  _115
REMARK   51  A    between atoms: _115  and  _116
REMARK   52  A    between atoms: _116  and  _117
REMARK   53  A    between atoms: _120  and  _122
REMARK   54  A    between atoms: _122  and  _123
REMARK   55  A    between atoms: _122  and  _125
REMARK   56  A    between atoms: _125  and  _126
REMARK   57  A    between atoms: _130  and  _131
REMARK   58  A    between atoms: _136  and  _138
REMARK   59  A    between atoms: _138  and  _139
REMARK   60  A    between atoms: _141  and  _143
REMARK   61  A    between atoms: _143  and  _144
REMARK   62  A    between atoms: _143  and  _146
REMARK   63  A    between atoms: _146  and  _147
REMARK   64  A    between atoms: _152  and  _154
REMARK   65  A    between atoms: _154  and  _155
REMARK   66  A    between atoms: _158  and  _160
REMARK   67  A    between atoms: _160  and  _161
REMARK   68  A    between atoms: _160  and  _163
REMARK   69  A    between atoms: _166  and  _168
REMARK   70  A    between atoms: _168  and  _169
REMARK   71  A    between atoms: _168  and  _171
REMARK   72  A    between atoms: _171  and  _172
REMARK   73  A    between atoms: _174  and  _176
REMARK   74  A    between atoms: _176  and  _177
REMARK   75  A    between atoms: _176  and  _179
REMARK   76  A    between atoms: _179  and  _180
REMARK   77  A    between atoms: _183  and  _185
REMARK   78  A    between atoms: _185  and  _186
REMARK   79  A    between atoms: _185  and  _188
REMARK   80  A    between atoms: _188  and  _189
REMARK   81  A    between atoms: _192  and  _194
REMARK   82  A    between atoms: _194  and  _195
REMARK   83  A    between atoms: _194  and  _197
REMARK   84  A    between atoms: _197  and  _198
REMARK   85  A    between atoms: _198  and  _199
REMARK   86  A    between atoms: _201  and  _203
REMARK   87  A    between atoms: _203  and  _204
REMARK   88  A    between atoms: _203  and  _206
REMARK   89  A    between atoms: _206  and  _207
REMARK   90  A    between atoms: _207  and  _208
REMARK   91  A    between atoms: _208  and  _209
REMARK   92  A    between atoms: _218  and  _220
REMARK   93  A    between atoms: _220  and  _221
REMARK   94  A    between atoms: _220  and  _223
REMARK   95  A    between atoms: _225  and  _227
REMARK   96  A    between atoms: _227  and  _228
REMARK   97  A    between atoms: _227  and  _230
REMARK   98  A    between atoms: _230  and  _231
REMARK   99  A    between atoms: _233  and  _235
REMARK  100  A    between atoms: _235  and  _236
REMARK  101  A    between atoms: _235  and  _238
REMARK  102  A    between atoms: _238  and  _239
REMARK  103  A    between atoms: _242  and  _244
REMARK  104  A    between atoms: _244  and  _245
REMARK  105  A    between atoms: _244  and  _247
REMARK  106  A    between atoms: _247  and  _248
REMARK  107  A    between atoms: _251  and  _253
REMARK  108  A    between atoms: _253  and  _254
REMARK  109  A    between atoms: _253  and  _256
REMARK  110  A    between atoms: _256  and  _257
REMARK  111  A    between atoms: _263  and  _265
REMARK  112  A    between atoms: _265  and  _266
REMARK  113  A    between atoms: _265  and  _268
REMARK  114  A    between atoms: _268  and  _269
REMARK  115  A    between atoms: _269  and  _270
REMARK  116  A    between atoms: _270  and  _271
REMARK  117  A    between atoms: _271  and  _272
REMARK  118  A    between atoms: _276  and  _278
REMARK  119  A    between atoms: _278  and  _279
REMARK  120  A    between atoms: _278  and  _281
REMARK  121  A    between atoms: _281  and  _282
REMARK  122  A    between atoms: _285  and  _287
REMARK  123  A    between atoms: _287  and  _288
REMARK  124  A    between atoms: _290  and  _292
REMARK  125  A    between atoms: _292  and  _293
REMARK  126  A    between atoms: _292  and  _295
REMARK  127  A    between atoms: _295  and  _296
REMARK  128  A    between atoms: _298  and  _300
REMARK  129  A    between atoms: _300  and  _301
REMARK  130  A    between atoms: _303  and  _305
REMARK  131  A    between atoms: _305  and  _306
REMARK  132  A    between atoms: _305  and  _308
REMARK  133  A    between atoms: _308  and  _309
REMARK  134  A    between atoms: _309  and  _310
REMARK  135  A    between atoms: _313  and  _315
REMARK  136  A    between atoms: _315  and  _316
REMARK  137  A    between atoms: _315  and  _318
REMARK  138  A    between atoms: _320  and  _322
REMARK  139  A    between atoms: _322  and  _323
REMARK  140  A    between atoms: _322  and  _325
REMARK  141  A    between atoms: _325  and  _326
REMARK  142  A    between atoms: _329  and  _331
REMARK  143  A    between atoms: _331  and  _332
REMARK  144  A    between atoms: _331  and  _334
REMARK  145  A    between atoms: _334  and  _335
REMARK  146  A    between atoms: _338  and  _340
REMARK  147  A    between atoms: _340  and  _341
REMARK  148  A    between atoms: _340  and  _343
REMARK  149  A    between atoms: _343  and  _344
REMARK  150  A    between atoms: _346  and  _348
REMARK  151  A    between atoms: _348  and  _349
REMARK  152  A    between atoms: _348  and  _351
REMARK  153  A    between atoms: _351  and  _352
REMARK  154  A    between atoms: _355  and  _357
REMARK  155  A    between atoms: _357  and  _358
REMARK  156  A    between atoms: _360  and  _362
REMARK  157  A    between atoms: _362  and  _363
REMARK  158  A    between atoms: _362  and  _365
REMARK  159  A    between atoms: _365  and  _366
REMARK  160  A    between atoms: _366  and  _367
REMARK  161  A    between atoms: _369  and  _371
REMARK  162  A    between atoms: _371  and  _372
REMARK  163  A    between atoms: _371  and  _374
REMARK  164  A    between atoms: _374  and  _375
REMARK  165  A    between atoms: _380  and  _382
REMARK  166  A    between atoms: _382  and  _383
REMARK  167  A    between atoms: _382  and  _385
REMARK  168  A    between atoms: _385  and  _386
REMARK  169  A    between atoms: _389  and  _391
REMARK  170  A    between atoms: _391  and  _392
REMARK  171  A    between atoms: _391  and  _394
REMARK  172  A    between atoms: _394  and  _395
REMARK  173  A    between atoms: _400  and  _402
REMARK  174  A    between atoms: _402  and  _403
REMARK  175  A    between atoms: _402  and  _405
REMARK  176  A    between atoms: _407  and  _409
REMARK  177  A    between atoms: _409  and  _410
REMARK  178  A    between atoms: _409  and  _412
REMARK  179  A    between atoms: _412  and  _413
REMARK  180  A    between atoms: _416  and  _418
REMARK  181  A    between atoms: _418  and  _419
REMARK  182  A    between atoms: _418  and  _421
REMARK  183  A    between atoms: _421  and  _422
REMARK  184  A    between atoms: _427  and  _429
REMARK  185  A    between atoms: _429  and  _430
REMARK  186  A    between atoms: _429  and  _432
REMARK  187  A    between atoms: _432  and  _433
REMARK  188  A    between atoms: _436  and  _438
REMARK  189  A    between atoms: _438  and  _439
REMARK  190  A    between atoms: _438  and  _441
REMARK  191  A    between atoms: _441  and  _442
REMARK  192  A    between atoms: _447  and  _448
REMARK  193  A    between atoms: _450  and  _452
REMARK  194  A    between atoms: _452  and  _453
REMARK  195  A    between atoms: _452  and  _455
REMARK  196  A    between atoms: _455  and  _456
REMARK  197  A    between atoms: _459  and  _461
REMARK  198  A    between atoms: _461  and  _462
REMARK  199  A    between atoms: _461  and  _464
REMARK  200  A    between atoms: _464  and  _465
REMARK  201  A    between atoms: _467  and  _469
REMARK  202  A    between atoms: _469  and  _470
REMARK  203  A    between atoms: _469  and  _472
REMARK  204  A    between atoms: _472  and  _473
REMARK  205  A    between atoms: _476  and  _478
REMARK  206  A    between atoms: _478  and  _479
REMARK  207  A    between atoms: _478  and  _481
REMARK  208  A    between atoms: _481  and  _482
REMARK  209  A    between atoms: _486  and  MN_638
REMARK  210  A    between atoms: _487  and  _489
REMARK  211  A    between atoms: _489  and  _490
REMARK  212  A    between atoms: _489  and  _492
REMARK  213  A    between atoms: _492  and  _493
REMARK  214  A    between atoms: _493  and  _494
REMARK  215  A    between atoms: _497  and  _499
REMARK  216  A    between atoms: _499  and  _500
REMARK  217  A    between atoms: _499  and  _502
REMARK  218  A    between atoms: _502  and  _503
REMARK  219  A    between atoms: _503  and  _504
REMARK  220  A    between atoms: _504  and  _505
REMARK  221  A    between atoms: _514  and  _516
REMARK  222  A    between atoms: _516  and  _517
REMARK  223  A    between atoms: _516  and  _519
REMARK  224  A    between atoms: _519  and  _520
REMARK  225  A    between atoms: _524  and  MN_638
REMARK  226  A    between atoms: _525  and  _527
REMARK  227  A    between atoms: _527  and  _528
REMARK  228  A    between atoms: _531  and  _532
REMARK  229  A    between atoms: _537  and  _539
REMARK  230  A    between atoms: _539  and  _540
REMARK  231  A    between atoms: _539  and  _542
REMARK  232  A    between atoms: _542  and  _543
REMARK  233  A    between atoms: _546  and  _548
REMARK  234  A    between atoms: _548  and  _549
REMARK  235  A    between atoms: _548  and  _551
REMARK  236  A    between atoms: _551  and  _552
REMARK  237  A    between atoms: _555  and  _557
REMARK  238  A    between atoms: _557  and  _558
REMARK  239  A    between atoms: _557  and  _560
REMARK  240  A    between atoms: _563  and  _564
REMARK  241  A    between atoms: _569  and  _571
REMARK  242  A    between atoms: _571  and  _572
REMARK  243  A    between atoms: _571  and  _574
REMARK  244  A    between atoms: _574  and  _575
REMARK  245  A    between atoms: _578  and  _580
REMARK  246  A    between atoms: _580  and  _581
REMARK  247  A    between atoms: _580  and  _583
REMARK  248  A    between atoms: _583  and  _584
REMARK  249  A    between atoms: _584  and  _585
REMARK  250  A    between atoms: _585  and  _586
REMARK  251  A    between atoms: _586  and  _587
REMARK  252  A    between atoms: _591  and  _593
REMARK  253  A    between atoms: _593  and  _594
REMARK  254  A    between atoms: _593  and  _596
REMARK  255  A    between atoms: _596  and  _597
REMARK  256  A    between atoms: _603  and  _605
REMARK  257  A    between atoms: _605  and  _606
REMARK  258  A    between atoms: _609  and  _611
REMARK  259  A    between atoms: _611  and  _612
REMARK  260  A    between atoms: _611  and  _614
REMARK  261  A    between atoms: _614  and  _615
REMARK  262  A    between atoms: _621  and  _623
REMARK  263  A    between atoms: _623  and  _624
REMARK  264  A    between atoms: _623  and  _626
REMARK  265  A    between atoms: _626  and  _627
REMARK  266  A    between atoms: _627  and  _628
REMARK  267  A    between atoms: _628  and  _629
REMARK                            x       y       z     vdW  Elec       q    Type
REMARK                         _______ _______ _______ _____ _____    ______ ____
ROOT
ATOM      1  O   HOH     1      89.210 -27.466  41.243  0.00  0.00    +0.000 OA
ENDROOT
TORSDOF 0
REMARK  Name = ../refined-set-2016/2wqp/2wqp_pocket.pdb
REMARK  267 active torsions:
REMARK  status: ('A' for Active; 'I' for Inactive)
REMARK    1  A    between atoms: _1  and  _3
REMARK    2  A    between atoms: _3  and  _4
REMARK    3  A    between atoms: _3  and  _6
REMARK    4  A    between atoms: _6  and  _7
REMARK    5  A    between atoms: _10  and  _12
REMARK    6  A    between atoms: _12  and  _13
REMARK    7  A    between atoms: _12  and  _15
REMARK    8  A    between atoms: _15  and  _16
REMARK    9  A    between atoms: _16  and  _17
REMARK   10  A    between atoms: _20  and  _22
REMARK   11  A    between atoms: _22  and  _23
REMARK   12  A    between atoms: _22  and  _25
REMARK   13  A    between atoms: _25  and  _26
REMARK   14  A    between atoms: _29  and  _31
REMARK   15  A    between atoms: _31  and  _32
REMARK   16  A    between atoms: _34  and  _36
REMARK   17  A    between atoms: _36  and  _37
REMARK   18  A    between atoms: _36  and  _39
REMARK   19  A    between atoms: _39  and  _40
REMARK   20  A    between atoms: _43  and  _45
REMARK   21  A    between atoms: _45  and  _46
REMARK   22  A    between atoms: _45  and  _48
REMARK   23  A    between atoms: _48  and  _49
REMARK   24  A    between atoms: _54  and  _56
REMARK   25  A    between atoms: _56  and  _57
REMARK   26  A    between atoms: _56  and  _59
REMARK   27  A    between atoms: _59  and  _60
REMARK   28  A    between atoms: _60  and  _61
REMARK   29  A    between atoms: _61  and  _62
REMARK   30  A    between atoms: _62  and  _63
REMARK   31  A    between atoms: _67  and  _69
REMARK   32  A    between atoms: _69  and  _70
REMARK   33  A    between atoms: _69  and  _72
REMARK   34  A    between atoms: _72  and  _73
REMARK   35  A    between atoms: _78  and  _80
REMARK   36  A    between atoms: _80  and  _81
REMARK   37  A    between atoms: _80  and  _83
REMARK   38  A    between atoms: _83  and  _84
REMARK   39  A    between atoms: _84  and  _85
REMARK   40  A    between atoms: _90  and  _92
REMARK   41  A    between atoms: _92  and  _93
REMARK   42  A    between atoms: _92  and  _95
REMARK   43  A    between atoms: _95  and  _96
REMARK   44  A    between atoms: _99  and  _101
REMARK   45  A    between atoms: _101  and  _102
REMARK   46  A    between atoms: _101  and  _104
REMARK   47  A    between atoms: _104  and  _105
REMARK   48  A    between atoms: _110  and  _112
REMARK   49  A    between atoms: _112  and  _113
REMARK   50  A    between atoms: _112  and  _115
REMARK   51  A    between atoms: _115  and  _116
REMARK   52  A    between atoms: _116  and  _117
REMARK   53  A    between atoms: _120  and  _122
REMARK   54  A    between atoms: _122  and  _123
REMARK   55  A    between atoms: _122  and  _125
REMARK   56  A    between atoms: _125  and  _126
REMARK   57  A    between atoms: _130  and  _131
REMARK   58  A    between atoms: _136  and  _138
REMARK   59  A    between atoms: _138  and  _139
REMARK   60  A    between atoms: _141  and  _143
REMARK   61  A    between atoms: _143  and  _144
REMARK   62  A    between atoms: _143  and  _146
REMARK   63  A    between atoms: _146  and  _147
REMARK   64  A    between atoms: _152  and  _154
REMARK   65  A    between atoms: _154  and  _155
REMARK   66  A    between atoms: _158  and  _160
REMARK   67  A    between atoms: _160  and  _161
REMARK   68  A    between atoms: _160  and  _163
REMARK   69  A    between atoms: _166  and  _168
REMARK   70  A    between atoms: _168  and  _169
REMARK   71  A    between atoms: _168  and  _171
REMARK   72  A    between atoms: _171  and  _172
REMARK   73  A    between atoms: _174  and  _176
REMARK   74  A    between atoms: _176  and  _177
REMARK   75  A    between atoms: _176  and  _179
REMARK   76  A    between atoms: _179  and  _180
REMARK   77  A    between atoms: _183  and  _185
REMARK   78  A    between atoms: _185  and  _186
REMARK   79  A    between atoms: _185  and  _188
REMARK   80  A    between atoms: _188  and  _189
REMARK   81  A    between atoms: _192  and  _194
REMARK   82  A    between atoms: _194  and  _195
REMARK   83  A    between atoms: _194  and  _197
REMARK   84  A    between atoms: _197  and  _198
REMARK   85  A    between atoms: _198  and  _199
REMARK   86  A    between atoms: _201  and  _203
REMARK   87  A    between atoms: _203  and  _204
REMARK   88  A    between atoms: _203  and  _206
REMARK   89  A    between atoms: _206  and  _207
REMARK   90  A    between atoms: _207  and  _208
REMARK   91  A    between atoms: _208  and  _209
REMARK   92  A    between atoms: _218  and  _220
REMARK   93  A    between atoms: _220  and  _221
REMARK   94  A    between atoms: _220  and  _223
REMARK   95  A    between atoms: _225  and  _227
REMARK   96  A    between atoms: _227  and  _228
REMARK   97  A    between atoms: _227  and  _230
REMARK   98  A    between atoms: _230  and  _231
REMARK   99  A    between atoms: _233  and  _235
REMARK  100  A    between atoms: _235  and  _236
REMARK  101  A    between atoms: _235  and  _238
REMARK  102  A    between atoms: _238  and  _239
REMARK  103  A    between atoms: _242  and  _244
REMARK  104  A    between atoms: _244  and  _245
REMARK  105  A    between atoms: _244  and  _247
REMARK  106  A    between atoms: _247  and  _248
REMARK  107  A    between atoms: _251  and  _253
REMARK  108  A    between atoms: _253  and  _254
REMARK  109  A    between atoms: _253  and  _256
REMARK  110  A    between atoms: _256  and  _257
REMARK  111  A    between atoms: _263  and  _265
REMARK  112  A    between atoms: _265  and  _266
REMARK  113  A    between atoms: _265  and  _268
REMARK  114  A    between atoms: _268  and  _269
REMARK  115  A    between atoms: _269  and  _270
REMARK  116  A    between atoms: _270  and  _271
REMARK  117  A    between atoms: _271  and  _272
REMARK  118  A    between atoms: _276  and  _278
REMARK  119  A    between atoms: _278  and  _279
REMARK  120  A    between atoms: _278  and  _281
REMARK  121  A    between atoms: _281  and  _282
REMARK  122  A    between atoms: _285  and  _287
REMARK  123  A    between atoms: _287  and  _288
REMARK  124  A    between atoms: _290  and  _292
REMARK  125  A    between atoms: _292  and  _293
REMARK  126  A    between atoms: _292  and  _295
REMARK  127  A    between atoms: _295  and  _296
REMARK  128  A    between atoms: _298  and  _300
REMARK  129  A    between atoms: _300  and  _301
REMARK  130  A    between atoms: _303  and  _305
REMARK  131  A    between atoms: _305  and  _306
REMARK  132  A    between atoms: _305  and  _308
REMARK  133  A    between atoms: _308  and  _309
REMARK  134  A    between atoms: _309  and  _310
REMARK  135  A    between atoms: _313  and  _315
REMARK  136  A    between atoms: _315  and  _316
REMARK  137  A    between atoms: _315  and  _318
REMARK  138  A    between atoms: _320  and  _322
REMARK  139  A    between atoms: _322  and  _323
REMARK  140  A    between atoms: _322  and  _325
REMARK  141  A    between atoms: _325  and  _326
REMARK  142  A    between atoms: _329  and  _331
REMARK  143  A    between atoms: _331  and  _332
REMARK  144  A    between atoms: _331  and  _334
REMARK  145  A    between atoms: _334  and  _335
REMARK  146  A    between atoms: _338  and  _340
REMARK  147  A    between atoms: _340  and  _341
REMARK  148  A    between atoms: _340  and  _343
REMARK  149  A    between atoms: _343  and  _344
REMARK  150  A    between atoms: _346  and  _348
REMARK  151  A    between atoms: _348  and  _349
REMARK  152  A    between atoms: _348  and  _351
REMARK  153  A    between atoms: _351  and  _352
REMARK  154  A    between atoms: _355  and  _357
REMARK  155  A    between atoms: _357  and  _358
REMARK  156  A    between atoms: _360  and  _362
REMARK  157  A    between atoms: _362  and  _363
REMARK  158  A    between atoms: _362  and  _365
REMARK  159  A    between atoms: _365  and  _366
REMARK  160  A    between atoms: _366  and  _367
REMARK  161  A    between atoms: _369  and  _371
REMARK  162  A    between atoms: _371  and  _372
REMARK  163  A    between atoms: _371  and  _374
REMARK  164  A    between atoms: _374  and  _375
REMARK  165  A    between atoms: _380  and  _382
REMARK  166  A    between atoms: _382  and  _383
REMARK  167  A    between atoms: _382  and  _385
REMARK  168  A    between atoms: _385  and  _386
REMARK  169  A    between atoms: _389  and  _391
REMARK  170  A    between atoms: _391  and  _392
REMARK  171  A    between atoms: _391  and  _394
REMARK  172  A    between atoms: _394  and  _395
REMARK  173  A    between atoms: _400  and  _402
REMARK  174  A    between atoms: _402  and  _403
REMARK  175  A    between atoms: _402  and  _405
REMARK  176  A    between atoms: _407  and  _409
REMARK  177  A    between atoms: _409  and  _410
REMARK  178  A    between atoms: _409  and  _412
REMARK  179  A    between atoms: _412  and  _413
REMARK  180  A    between atoms: _416  and  _418
REMARK  181  A    between atoms: _418  and  _419
REMARK  182  A    between atoms: _418  and  _421
REMARK  183  A    between atoms: _421  and  _422
REMARK  184  A    between atoms: _427  and  _429
REMARK  185  A    between atoms: _429  and  _430
REMARK  186  A    between atoms: _429  and  _432
REMARK  187  A    between atoms: _432  and  _433
REMARK  188  A    between atoms: _436  and  _438
REMARK  189  A    between atoms: _438  and  _439
REMARK  190  A    between atoms: _438  and  _441
REMARK  191  A    between atoms: _441  and  _442
REMARK  192  A    between atoms: _447  and  _448
REMARK  193  A    between atoms: _450  and  _452
REMARK  194  A    between atoms: _452  and  _453
REMARK  195  A    between atoms: _452  and  _455
REMARK  196  A    between atoms: _455  and  _456
REMARK  197  A    between atoms: _459  and  _461
REMARK  198  A    between atoms: _461  and  _462
REMARK  199  A    between atoms: _461  and  _464
REMARK  200  A    between atoms: _464  and  _465
REMARK  201  A    between atoms: _467  and  _469
REMARK  202  A    between atoms: _469  and  _470
REMARK  203  A    between atoms: _469  and  _472
REMARK  204  A    between atoms: _472  and  _473
REMARK  205  A    between atoms: _476  and  _478
REMARK  206  A    between atoms: _478  and  _479
REMARK  207  A    between atoms: _478  and  _481
REMARK  208  A    between atoms: _481  and  _482
REMARK  209  A    between atoms: _486  and  MN_638
REMARK  210  A    between atoms: _487  and  _489
REMARK  211  A    between atoms: _489  and  _490
REMARK  212  A    between atoms: _489  and  _492
REMARK  213  A    between atoms: _492  and  _493
REMARK  214  A    between atoms: _493  and  _494
REMARK  215  A    between atoms: _497  and  _499
REMARK  216  A    between atoms: _499  and  _500
REMARK  217  A    between atoms: _499  and  _502
REMARK  218  A    between atoms: _502  and  _503
REMARK  219  A    between atoms: _503  and  _504
REMARK  220  A    between atoms: _504  and  _505
REMARK  221  A    between atoms: _514  and  _516
REMARK  222  A    between atoms: _516  and  _517
REMARK  223  A    between atoms: _516  and  _519
REMARK  224  A    between atoms: _519  and  _520
REMARK  225  A    between atoms: _524  and  MN_638
REMARK  226  A    between atoms: _525  and  _527
REMARK  227  A    between atoms: _527  and  _528
REMARK  228  A    between atoms: _531  and  _532
REMARK  229  A    between atoms: _537  and  _539
REMARK  230  A    between atoms: _539  and  _540
REMARK  231  A    between atoms: _539  and  _542
REMARK  232  A    between atoms: _542  and  _543
REMARK  233  A    between atoms: _546  and  _548
REMARK  234  A    between atoms: _548  and  _549
REMARK  235  A    between atoms: _548  and  _551
REMARK  236  A    between atoms: _551  and  _552
REMARK  237  A    between atoms: _555  and  _557
REMARK  238  A    between atoms: _557  and  _558
REMARK  239  A    between atoms: _557  and  _560
REMARK  240  A    between atoms: _563  and  _564
REMARK  241  A    between atoms: _569  and  _571
REMARK  242  A    between atoms: _571  and  _572
REMARK  243  A    between atoms: _571  and  _574
REMARK  244  A    between atoms: _574  and  _575
REMARK  245  A    between atoms: _578  and  _580
REMARK  246  A    between atoms: _580  and  _581
REMARK  247  A    between atoms: _580  and  _583
REMARK  248  A    between atoms: _583  and  _584
REMARK  249  A    between atoms: _584  and  _585
REMARK  250  A    between atoms: _585  and  _586
REMARK  251  A    between atoms: _586  and  _587
REMARK  252  A    between atoms: _591  and  _593
REMARK  253  A    between atoms: _593  and  _594
REMARK  254  A    between atoms: _593  and  _596
REMARK  255  A    between atoms: _596  and  _597
REMARK  256  A    between atoms: _603  and  _605
REMARK  257  A    between atoms: _605  and  _606
REMARK  258  A    between atoms: _609  and  _611
REMARK  259  A    between atoms: _611  and  _612
REMARK  260  A    between atoms: _611  and  _614
REMARK  261  A    between atoms: _614  and  _615
REMARK  262  A    between atoms: _621  and  _623
REMARK  263  A    between atoms: _623  and  _624
REMARK  264  A    between atoms: _623  and  _626
REMARK  265  A    between atoms: _626  and  _627
REMARK  266  A    between atoms: _627  and  _628
REMARK  267  A    between atoms: _628  and  _629
REMARK                            x       y       z     vdW  Elec       q    Type
REMARK                         _______ _______ _______ _____ _____    ______ ____
ROOT
ATOM      1  O   HOH     1      92.338 -30.339  40.963  0.00  0.00    +0.000 OA
ENDROOT
TORSDOF 0
REMARK  Name = ../refined-set-2016/2wqp/2wqp_pocket.pdb
REMARK  267 active torsions:
REMARK  status: ('A' for Active; 'I' for Inactive)
REMARK    1  A    between atoms: _1  and  _3
REMARK    2  A    between atoms: _3  and  _4
REMARK    3  A    between atoms: _3  and  _6
REMARK    4  A    between atoms: _6  and  _7
REMARK    5  A    between atoms: _10  and  _12
REMARK    6  A    between atoms: _12  and  _13
REMARK    7  A    between atoms: _12  and  _15
REMARK    8  A    between atoms: _15  and  _16
REMARK    9  A    between atoms: _16  and  _17
REMARK   10  A    between atoms: _20  and  _22
REMARK   11  A    between atoms: _22  and  _23
REMARK   12  A    between atoms: _22  and  _25
REMARK   13  A    between atoms: _25  and  _26
REMARK   14  A    between atoms: _29  and  _31
REMARK   15  A    between atoms: _31  and  _32
REMARK   16  A    between atoms: _34  and  _36
REMARK   17  A    between atoms: _36  and  _37
REMARK   18  A    between atoms: _36  and  _39
REMARK   19  A    between atoms: _39  and  _40
REMARK   20  A    between atoms: _43  and  _45
REMARK   21  A    between atoms: _45  and  _46
REMARK   22  A    between atoms: _45  and  _48
REMARK   23  A    between atoms: _48  and  _49
REMARK   24  A    between atoms: _54  and  _56
REMARK   25  A    between atoms: _56  and  _57
REMARK   26  A    between atoms: _56  and  _59
REMARK   27  A    between atoms: _59  and  _60
REMARK   28  A    between atoms: _60  and  _61
REMARK   29  A    between atoms: _61  and  _62
REMARK   30  A    between atoms: _62  and  _63
REMARK   31  A    between atoms: _67  and  _69
REMARK   32  A    between atoms: _69  and  _70
REMARK   33  A    between atoms: _69  and  _72
REMARK   34  A    between atoms: _72  and  _73
REMARK   35  A    between atoms: _78  and  _80
REMARK   36  A    between atoms: _80  and  _81
REMARK   37  A    between atoms: _80  and  _83
REMARK   38  A    between atoms: _83  and  _84
REMARK   39  A    between atoms: _84  and  _85
REMARK   40  A    between atoms: _90  and  _92
REMARK   41  A    between atoms: _92  and  _93
REMARK   42  A    between atoms: _92  and  _95
REMARK   43  A    between atoms: _95  and  _96
REMARK   44  A    between atoms: _99  and  _101
REMARK   45  A    between atoms: _101  and  _102
REMARK   46  A    between atoms: _101  and  _104
REMARK   47  A    between atoms: _104  and  _105
REMARK   48  A    between atoms: _110  and  _112
REMARK   49  A    between atoms: _112  and  _113
REMARK   50  A    between atoms: _112  and  _115
REMARK   51  A    between atoms: _115  and  _116
REMARK   52  A    between atoms: _116  and  _117
REMARK   53  A    between atoms: _120  and  _122
REMARK   54  A    between atoms: _122  and  _123
REMARK   55  A    between atoms: _122  and  _125
REMARK   56  A    between atoms: _125  and  _126
REMARK   57  A    between atoms: _130  and  _131
REMARK   58  A    between atoms: _136  and  _138
REMARK   59  A    between atoms: _138  and  _139
REMARK   60  A    between atoms: _141  and  _143
REMARK   61  A    between atoms: _143  and  _144
REMARK   62  A    between atoms: _143  and  _146
REMARK   63  A    between atoms: _146  and  _147
REMARK   64  A    between atoms: _152  and  _154
REMARK   65  A    between atoms: _154  and  _155
REMARK   66  A    between atoms: _158  and  _160
REMARK   67  A    between atoms: _160  and  _161
REMARK   68  A    between atoms: _160  and  _163
REMARK   69  A    between atoms: _166  and  _168
REMARK   70  A    between atoms: _168  and  _169
REMARK   71  A    between atoms: _168  and  _171
REMARK   72  A    between atoms: _171  and  _172
REMARK   73  A    between atoms: _174  and  _176
REMARK   74  A    between atoms: _176  and  _177
REMARK   75  A    between atoms: _176  and  _179
REMARK   76  A    between atoms: _179  and  _180
REMARK   77  A    between atoms: _183  and  _185
REMARK   78  A    between atoms: _185  and  _186
REMARK   79  A    between atoms: _185  and  _188
REMARK   80  A    between atoms: _188  and  _189
REMARK   81  A    between atoms: _192  and  _194
REMARK   82  A    between atoms: _194  and  _195
REMARK   83  A    between atoms: _194  and  _197
REMARK   84  A    between atoms: _197  and  _198
REMARK   85  A    between atoms: _198  and  _199
REMARK   86  A    between atoms: _201  and  _203
REMARK   87  A    between atoms: _203  and  _204
REMARK   88  A    between atoms: _203  and  _206
REMARK   89  A    between atoms: _206  and  _207
REMARK   90  A    between atoms: _207  and  _208
REMARK   91  A    between atoms: _208  and  _209
REMARK   92  A    between atoms: _218  and  _220
REMARK   93  A    between atoms: _220  and  _221
REMARK   94  A    between atoms: _220  and  _223
REMARK   95  A    between atoms: _225  and  _227
REMARK   96  A    between atoms: _227  and  _228
REMARK   97  A    between atoms: _227  and  _230
REMARK   98  A    between atoms: _230  and  _231
REMARK   99  A    between atoms: _233  and  _235
REMARK  100  A    between atoms: _235  and  _236
REMARK  101  A    between atoms: _235  and  _238
REMARK  102  A    between atoms: _238  and  _239
REMARK  103  A    between atoms: _242  and  _244
REMARK  104  A    between atoms: _244  and  _245
REMARK  105  A    between atoms: _244  and  _247
REMARK  106  A    between atoms: _247  and  _248
REMARK  107  A    between atoms: _251  and  _253
REMARK  108  A    between atoms: _253  and  _254
REMARK  109  A    between atoms: _253  and  _256
REMARK  110  A    between atoms: _256  and  _257
REMARK  111  A    between atoms: _263  and  _265
REMARK  112  A    between atoms: _265  and  _266
REMARK  113  A    between atoms: _265  and  _268
REMARK  114  A    between atoms: _268  and  _269
REMARK  115  A    between atoms: _269  and  _270
REMARK  116  A    between atoms: _270  and  _271
REMARK  117  A    between atoms: _271  and  _272
REMARK  118  A    between atoms: _276  and  _278
REMARK  119  A    between atoms: _278  and  _279
REMARK  120  A    between atoms: _278  and  _281
REMARK  121  A    between atoms: _281  and  _282
REMARK  122  A    between atoms: _285  and  _287
REMARK  123  A    between atoms: _287  and  _288
REMARK  124  A    between atoms: _290  and  _292
REMARK  125  A    between atoms: _292  and  _293
REMARK  126  A    between atoms: _292  and  _295
REMARK  127  A    between atoms: _295  and  _296
REMARK  128  A    between atoms: _298  and  _300
REMARK  129  A    between atoms: _300  and  _301
REMARK  130  A    between atoms: _303  and  _305
REMARK  131  A    between atoms: _305  and  _306
REMARK  132  A    between atoms: _305  and  _308
REMARK  133  A    between atoms: _308  and  _309
REMARK  134  A    between atoms: _309  and  _310
REMARK  135  A    between atoms: _313  and  _315
REMARK  136  A    between atoms: _315  and  _316
REMARK  137  A    between atoms: _315  and  _318
REMARK  138  A    between atoms: _320  and  _322
REMARK  139  A    between atoms: _322  and  _323
REMARK  140  A    between atoms: _322  and  _325
REMARK  141  A    between atoms: _325  and  _326
REMARK  142  A    between atoms: _329  and  _331
REMARK  143  A    between atoms: _331  and  _332
REMARK  144  A    between atoms: _331  and  _334
REMARK  145  A    between atoms: _334  and  _335
REMARK  146  A    between atoms: _338  and  _340
REMARK  147  A    between atoms: _340  and  _341
REMARK  148  A    between atoms: _340  and  _343
REMARK  149  A    between atoms: _343  and  _344
REMARK  150  A    between atoms: _346  and  _348
REMARK  151  A    between atoms: _348  and  _349
REMARK  152  A    between atoms: _348  and  _351
REMARK  153  A    between atoms: _351  and  _352
REMARK  154  A    between atoms: _355  and  _357
REMARK  155  A    between atoms: _357  and  _358
REMARK  156  A    between atoms: _360  and  _362
REMARK  157  A    between atoms: _362  and  _363
REMARK  158  A    between atoms: _362  and  _365
REMARK  159  A    between atoms: _365  and  _366
REMARK  160  A    between atoms: _366  and  _367
REMARK  161  A    between atoms: _369  and  _371
REMARK  162  A    between atoms: _371  and  _372
REMARK  163  A    between atoms: _371  and  _374
REMARK  164  A    between atoms: _374  and  _375
REMARK  165  A    between atoms: _380  and  _382
REMARK  166  A    between atoms: _382  and  _383
REMARK  167  A    between atoms: _382  and  _385
REMARK  168  A    between atoms: _385  and  _386
REMARK  169  A    between atoms: _389  and  _391
REMARK  170  A    between atoms: _391  and  _392
REMARK  171  A    between atoms: _391  and  _394
REMARK  172  A    between atoms: _394  and  _395
REMARK  173  A    between atoms: _400  and  _402
REMARK  174  A    between atoms: _402  and  _403
REMARK  175  A    between atoms: _402  and  _405
REMARK  176  A    between atoms: _407  and  _409
REMARK  177  A    between atoms: _409  and  _410
REMARK  178  A    between atoms: _409  and  _412
REMARK  179  A    between atoms: _412  and  _413
REMARK  180  A    between atoms: _416  and  _418
REMARK  181  A    between atoms: _418  and  _419
REMARK  182  A    between atoms: _418  and  _421
REMARK  183  A    between atoms: _421  and  _422
REMARK  184  A    between atoms: _427  and  _429
REMARK  185  A    between atoms: _429  and  _430
REMARK  186  A    between atoms: _429  and  _432
REMARK  187  A    between atoms: _432  and  _433
REMARK  188  A    between atoms: _436  and  _438
REMARK  189  A    between atoms: _438  and  _439
REMARK  190  A    between atoms: _438  and  _441
REMARK  191  A    between atoms: _441  and  _442
REMARK  192  A    between atoms: _447  and  _448
REMARK  193  A    between atoms: _450  and  _452
REMARK  194  A    between atoms: _452  and  _453
REMARK  195  A    between atoms: _452  and  _455
REMARK  196  A    between atoms: _455  and  _456
REMARK  197  A    between atoms: _459  and  _461
REMARK  198  A    between atoms: _461  and  _462
REMARK  199  A    between atoms: _461  and  _464
REMARK  200  A    between atoms: _464  and  _465
REMARK  201  A    between atoms: _467  and  _469
REMARK  202  A    between atoms: _469  and  _470
REMARK  203  A    between atoms: _469  and  _472
REMARK  204  A    between atoms: _472  and  _473
REMARK  205  A    between atoms: _476  and  _478
REMARK  206  A    between atoms: _478  and  _479
REMARK  207  A    between atoms: _478  and  _481
REMARK  208  A    between atoms: _481  and  _482
REMARK  209  A    between atoms: _486  and  MN_638
REMARK  210  A    between atoms: _487  and  _489
REMARK  211  A    between atoms: _489  and  _490
REMARK  212  A    between atoms: _489  and  _492
REMARK  213  A    between atoms: _492  and  _493
REMARK  214  A    between atoms: _493  and  _494
REMARK  215  A    between atoms: _497  and  _499
REMARK  216  A    between atoms: _499  and  _500
REMARK  217  A    between atoms: _499  and  _502
REMARK  218  A    between atoms: _502  and  _503
REMARK  219  A    between atoms: _503  and  _504
REMARK  220  A    between atoms: _504  and  _505
REMARK  221  A    between atoms: _514  and  _516
REMARK  222  A    between atoms: _516  and  _517
REMARK  223  A    between atoms: _516  and  _519
REMARK  224  A    between atoms: _519  and  _520
REMARK  225  A    between atoms: _524  and  MN_638
REMARK  226  A    between atoms: _525  and  _527
REMARK  227  A    between atoms: _527  and  _528
REMARK  228  A    between atoms: _531  and  _532
REMARK  229  A    between atoms: _537  and  _539
REMARK  230  A    between atoms: _539  and  _540
REMARK  231  A    between atoms: _539  and  _542
REMARK  232  A    between atoms: _542  and  _543
REMARK  233  A    between atoms: _546  and  _548
REMARK  234  A    between atoms: _548  and  _549
REMARK  235  A    between atoms: _548  and  _551
REMARK  236  A    between atoms: _551  and  _552
REMARK  237  A    between atoms: _555  and  _557
REMARK  238  A    between atoms: _557  and  _558
REMARK  239  A    between atoms: _557  and  _560
REMARK  240  A    between atoms: _563  and  _564
REMARK  241  A    between atoms: _569  and  _571
REMARK  242  A    between atoms: _571  and  _572
REMARK  243  A    between atoms: _571  and  _574
REMARK  244  A    between atoms: _574  and  _575
REMARK  245  A    between atoms: _578  and  _580
REMARK  246  A    between atoms: _580  and  _581
REMARK  247  A    between atoms: _580  and  _583
REMARK  248  A    between atoms: _583  and  _584
REMARK  249  A    between atoms: _584  and  _585
REMARK  250  A    between atoms: _585  and  _586
REMARK  251  A    between atoms: _586  and  _587
REMARK  252  A    between atoms: _591  and  _593
REMARK  253  A    between atoms: _593  and  _594
REMARK  254  A    between atoms: _593  and  _596
REMARK  255  A    between atoms: _596  and  _597
REMARK  256  A    between atoms: _603  and  _605
REMARK  257  A    between atoms: _605  and  _606
REMARK  258  A    between atoms: _609  and  _611
REMARK  259  A    between atoms: _611  and  _612
REMARK  260  A    between atoms: _611  and  _614
REMARK  261  A    between atoms: _614  and  _615
REMARK  262  A    between atoms: _621  and  _623
REMARK  263  A    between atoms: _623  and  _624
REMARK  264  A    between atoms: _623  and  _626
REMARK  265  A    between atoms: _626  and  _627
REMARK  266  A    between atoms: _627  and  _628
REMARK  267  A    between atoms: _628  and  _629
REMARK                            x       y       z     vdW  Elec       q    Type
REMARK                         _______ _______ _______ _____ _____    ______ ____
ROOT
ATOM      1  O   HOH     1      97.583 -24.087  55.864  0.00  0.00    +0.000 OA
ENDROOT
TORSDOF 0
REMARK  Name = ../refined-set-2016/2wqp/2wqp_pocket.pdb
REMARK  267 active torsions:
REMARK  status: ('A' for Active; 'I' for Inactive)
REMARK    1  A    between atoms: _1  and  _3
REMARK    2  A    between atoms: _3  and  _4
REMARK    3  A    between atoms: _3  and  _6
REMARK    4  A    between atoms: _6  and  _7
REMARK    5  A    between atoms: _10  and  _12
REMARK    6  A    between atoms: _12  and  _13
REMARK    7  A    between atoms: _12  and  _15
REMARK    8  A    between atoms: _15  and  _16
REMARK    9  A    between atoms: _16  and  _17
REMARK   10  A    between atoms: _20  and  _22
REMARK   11  A    between atoms: _22  and  _23
REMARK   12  A    between atoms: _22  and  _25
REMARK   13  A    between atoms: _25  and  _26
REMARK   14  A    between atoms: _29  and  _31
REMARK   15  A    between atoms: _31  and  _32
REMARK   16  A    between atoms: _34  and  _36
REMARK   17  A    between atoms: _36  and  _37
REMARK   18  A    between atoms: _36  and  _39
REMARK   19  A    between atoms: _39  and  _40
REMARK   20  A    between atoms: _43  and  _45
REMARK   21  A    between atoms: _45  and  _46
REMARK   22  A    between atoms: _45  and  _48
REMARK   23  A    between atoms: _48  and  _49
REMARK   24  A    between atoms: _54  and  _56
REMARK   25  A    between atoms: _56  and  _57
REMARK   26  A    between atoms: _56  and  _59
REMARK   27  A    between atoms: _59  and  _60
REMARK   28  A    between atoms: _60  and  _61
REMARK   29  A    between atoms: _61  and  _62
REMARK   30  A    between atoms: _62  and  _63
REMARK   31  A    between atoms: _67  and  _69
REMARK   32  A    between atoms: _69  and  _70
REMARK   33  A    between atoms: _69  and  _72
REMARK   34  A    between atoms: _72  and  _73
REMARK   35  A    between atoms: _78  and  _80
REMARK   36  A    between atoms: _80  and  _81
REMARK   37  A    between atoms: _80  and  _83
REMARK   38  A    between atoms: _83  and  _84
REMARK   39  A    between atoms: _84  and  _85
REMARK   40  A    between atoms: _90  and  _92
REMARK   41  A    between atoms: _92  and  _93
REMARK   42  A    between atoms: _92  and  _95
REMARK   43  A    between atoms: _95  and  _96
REMARK   44  A    between atoms: _99  and  _101
REMARK   45  A    between atoms: _101  and  _102
REMARK   46  A    between atoms: _101  and  _104
REMARK   47  A    between atoms: _104  and  _105
REMARK   48  A    between atoms: _110  and  _112
REMARK   49  A    between atoms: _112  and  _113
REMARK   50  A    between atoms: _112  and  _115
REMARK   51  A    between atoms: _115  and  _116
REMARK   52  A    between atoms: _116  and  _117
REMARK   53  A    between atoms: _120  and  _122
REMARK   54  A    between atoms: _122  and  _123
REMARK   55  A    between atoms: _122  and  _125
REMARK   56  A    between atoms: _125  and  _126
REMARK   57  A    between atoms: _130  and  _131
REMARK   58  A    between atoms: _136  and  _138
REMARK   59  A    between atoms: _138  and  _139
REMARK   60  A    between atoms: _141  and  _143
REMARK   61  A    between atoms: _143  and  _144
REMARK   62  A    between atoms: _143  and  _146
REMARK   63  A    between atoms: _146  and  _147
REMARK   64  A    between atoms: _152  and  _154
REMARK   65  A    between atoms: _154  and  _155
REMARK   66  A    between atoms: _158  and  _160
REMARK   67  A    between atoms: _160  and  _161
REMARK   68  A    between atoms: _160  and  _163
REMARK   69  A    between atoms: _166  and  _168
REMARK   70  A    between atoms: _168  and  _169
REMARK   71  A    between atoms: _168  and  _171
REMARK   72  A    between atoms: _171  and  _172
REMARK   73  A    between atoms: _174  and  _176
REMARK   74  A    between atoms: _176  and  _177
REMARK   75  A    between atoms: _176  and  _179
REMARK   76  A    between atoms: _179  and  _180
REMARK   77  A    between atoms: _183  and  _185
REMARK   78  A    between atoms: _185  and  _186
REMARK   79  A    between atoms: _185  and  _188
REMARK   80  A    between atoms: _188  and  _189
REMARK   81  A    between atoms: _192  and  _194
REMARK   82  A    between atoms: _194  and  _195
REMARK   83  A    between atoms: _194  and  _197
REMARK   84  A    between atoms: _197  and  _198
REMARK   85  A    between atoms: _198  and  _199
REMARK   86  A    between atoms: _201  and  _203
REMARK   87  A    between atoms: _203  and  _204
REMARK   88  A    between atoms: _203  and  _206
REMARK   89  A    between atoms: _206  and  _207
REMARK   90  A    between atoms: _207  and  _208
REMARK   91  A    between atoms: _208  and  _209
REMARK   92  A    between atoms: _218  and  _220
REMARK   93  A    between atoms: _220  and  _221
REMARK   94  A    between atoms: _220  and  _223
REMARK   95  A    between atoms: _225  and  _227
REMARK   96  A    between atoms: _227  and  _228
REMARK   97  A    between atoms: _227  and  _230
REMARK   98  A    between atoms: _230  and  _231
REMARK   99  A    between atoms: _233  and  _235
REMARK  100  A    between atoms: _235  and  _236
REMARK  101  A    between atoms: _235  and  _238
REMARK  102  A    between atoms: _238  and  _239
REMARK  103  A    between atoms: _242  and  _244
REMARK  104  A    between atoms: _244  and  _245
REMARK  105  A    between atoms: _244  and  _247
REMARK  106  A    between atoms: _247  and  _248
REMARK  107  A    between atoms: _251  and  _253
REMARK  108  A    between atoms: _253  and  _254
REMARK  109  A    between atoms: _253  and  _256
REMARK  110  A    between atoms: _256  and  _257
REMARK  111  A    between atoms: _263  and  _265
REMARK  112  A    between atoms: _265  and  _266
REMARK  113  A    between atoms: _265  and  _268
REMARK  114  A    between atoms: _268  and  _269
REMARK  115  A    between atoms: _269  and  _270
REMARK  116  A    between atoms: _270  and  _271
REMARK  117  A    between atoms: _271  and  _272
REMARK  118  A    between atoms: _276  and  _278
REMARK  119  A    between atoms: _278  and  _279
REMARK  120  A    between atoms: _278  and  _281
REMARK  121  A    between atoms: _281  and  _282
REMARK  122  A    between atoms: _285  and  _287
REMARK  123  A    between atoms: _287  and  _288
REMARK  124  A    between atoms: _290  and  _292
REMARK  125  A    between atoms: _292  and  _293
REMARK  126  A    between atoms: _292  and  _295
REMARK  127  A    between atoms: _295  and  _296
REMARK  128  A    between atoms: _298  and  _300
REMARK  129  A    between atoms: _300  and  _301
REMARK  130  A    between atoms: _303  and  _305
REMARK  131  A    between atoms: _305  and  _306
REMARK  132  A    between atoms: _305  and  _308
REMARK  133  A    between atoms: _308  and  _309
REMARK  134  A    between atoms: _309  and  _310
REMARK  135  A    between atoms: _313  and  _315
REMARK  136  A    between atoms: _315  and  _316
REMARK  137  A    between atoms: _315  and  _318
REMARK  138  A    between atoms: _320  and  _322
REMARK  139  A    between atoms: _322  and  _323
REMARK  140  A    between atoms: _322  and  _325
REMARK  141  A    between atoms: _325  and  _326
REMARK  142  A    between atoms: _329  and  _331
REMARK  143  A    between atoms: _331  and  _332
REMARK  144  A    between atoms: _331  and  _334
REMARK  145  A    between atoms: _334  and  _335
REMARK  146  A    between atoms: _338  and  _340
REMARK  147  A    between atoms: _340  and  _341
REMARK  148  A    between atoms: _340  and  _343
REMARK  149  A    between atoms: _343  and  _344
REMARK  150  A    between atoms: _346  and  _348
REMARK  151  A    between atoms: _348  and  _349
REMARK  152  A    between atoms: _348  and  _351
REMARK  153  A    between atoms: _351  and  _352
REMARK  154  A    between atoms: _355  and  _357
REMARK  155  A    between atoms: _357  and  _358
REMARK  156  A    between atoms: _360  and  _362
REMARK  157  A    between atoms: _362  and  _363
REMARK  158  A    between atoms: _362  and  _365
REMARK  159  A    between atoms: _365  and  _366
REMARK  160  A    between atoms: _366  and  _367
REMARK  161  A    between atoms: _369  and  _371
REMARK  162  A    between atoms: _371  and  _372
REMARK  163  A    between atoms: _371  and  _374
REMARK  164  A    between atoms: _374  and  _375
REMARK  165  A    between atoms: _380  and  _382
REMARK  166  A    between atoms: _382  and  _383
REMARK  167  A    between atoms: _382  and  _385
REMARK  168  A    between atoms: _385  and  _386
REMARK  169  A    between atoms: _389  and  _391
REMARK  170  A    between atoms: _391  and  _392
REMARK  171  A    between atoms: _391  and  _394
REMARK  172  A    between atoms: _394  and  _395
REMARK  173  A    between atoms: _400  and  _402
REMARK  174  A    between atoms: _402  and  _403
REMARK  175  A    between atoms: _402  and  _405
REMARK  176  A    between atoms: _407  and  _409
REMARK  177  A    between atoms: _409  and  _410
REMARK  178  A    between atoms: _409  and  _412
REMARK  179  A    between atoms: _412  and  _413
REMARK  180  A    between atoms: _416  and  _418
REMARK  181  A    between atoms: _418  and  _419
REMARK  182  A    between atoms: _418  and  _421
REMARK  183  A    between atoms: _421  and  _422
REMARK  184  A    between atoms: _427  and  _429
REMARK  185  A    between atoms: _429  and  _430
REMARK  186  A    between atoms: _429  and  _432
REMARK  187  A    between atoms: _432  and  _433
REMARK  188  A    between atoms: _436  and  _438
REMARK  189  A    between atoms: _438  and  _439
REMARK  190  A    between atoms: _438  and  _441
REMARK  191  A    between atoms: _441  and  _442
REMARK  192  A    between atoms: _447  and  _448
REMARK  193  A    between atoms: _450  and  _452
REMARK  194  A    between atoms: _452  and  _453
REMARK  195  A    between atoms: _452  and  _455
REMARK  196  A    between atoms: _455  and  _456
REMARK  197  A    between atoms: _459  and  _461
REMARK  198  A    between atoms: _461  and  _462
REMARK  199  A    between atoms: _461  and  _464
REMARK  200  A    between atoms: _464  and  _465
REMARK  201  A    between atoms: _467  and  _469
REMARK  202  A    between atoms: _469  and  _470
REMARK  203  A    between atoms: _469  and  _472
REMARK  204  A    between atoms: _472  and  _473
REMARK  205  A    between atoms: _476  and  _478
REMARK  206  A    between atoms: _478  and  _479
REMARK  207  A    between atoms: _478  and  _481
REMARK  208  A    between atoms: _481  and  _482
REMARK  209  A    between atoms: _486  and  MN_638
REMARK  210  A    between atoms: _487  and  _489
REMARK  211  A    between atoms: _489  and  _490
REMARK  212  A    between atoms: _489  and  _492
REMARK  213  A    between atoms: _492  and  _493
REMARK  214  A    between atoms: _493  and  _494
REMARK  215  A    between atoms: _497  and  _499
REMARK  216  A    between atoms: _499  and  _500
REMARK  217  A    between atoms: _499  and  _502
REMARK  218  A    between atoms: _502  and  _503
REMARK  219  A    between atoms: _503  and  _504
REMARK  220  A    between atoms: _504  and  _505
REMARK  221  A    between atoms: _514  and  _516
REMARK  222  A    between atoms: _516  and  _517
REMARK  223  A    between atoms: _516  and  _519
REMARK  224  A    between atoms: _519  and  _520
REMARK  225  A    between atoms: _524  and  MN_638
REMARK  226  A    between atoms: _525  and  _527
REMARK  227  A    between atoms: _527  and  _528
REMARK  228  A    between atoms: _531  and  _532
REMARK  229  A    between atoms: _537  and  _539
REMARK  230  A    between atoms: _539  and  _540
REMARK  231  A    between atoms: _539  and  _542
REMARK  232  A    between atoms: _542  and  _543
REMARK  233  A    between atoms: _546  and  _548
REMARK  234  A    between atoms: _548  and  _549
REMARK  235  A    between atoms: _548  and  _551
REMARK  236  A    between atoms: _551  and  _552
REMARK  237  A    between atoms: _555  and  _557
REMARK  238  A    between atoms: _557  and  _558
REMARK  239  A    between atoms: _557  and  _560
REMARK  240  A    between atoms: _563  and  _564
REMARK  241  A    between atoms: _569  and  _571
REMARK  242  A    between atoms: _571  and  _572
REMARK  243  A    between atoms: _571  and  _574
REMARK  244  A    between atoms: _574  and  _575
REMARK  245  A    between atoms: _578  and  _580
REMARK  246  A    between atoms: _580  and  _581
REMARK  247  A    between atoms: _580  and  _583
REMARK  248  A    between atoms: _583  and  _584
REMARK  249  A    between atoms: _584  and  _585
REMARK  250  A    between atoms: _585  and  _586
REMARK  251  A    between atoms: _586  and  _587
REMARK  252  A    between atoms: _591  and  _593
REMARK  253  A    between atoms: _593  and  _594
REMARK  254  A    between atoms: _593  and  _596
REMARK  255  A    between atoms: _596  and  _597
REMARK  256  A    between atoms: _603  and  _605
REMARK  257  A    between atoms: _605  and  _606
REMARK  258  A    between atoms: _609  and  _611
REMARK  259  A    between atoms: _611  and  _612
REMARK  260  A    between atoms: _611  and  _614
REMARK  261  A    between atoms: _614  and  _615
REMARK  262  A    between atoms: _621  and  _623
REMARK  263  A    between atoms: _623  and  _624
REMARK  264  A    between atoms: _623  and  _626
REMARK  265  A    between atoms: _626  and  _627
REMARK  266  A    between atoms: _627  and  _628
REMARK  267  A    between atoms: _628  and  _629
REMARK                            x       y       z     vdW  Elec       q    Type
REMARK                         _______ _______ _______ _____ _____    ______ ____
ROOT
ATOM      1  O   HOH     1     101.565 -23.843  57.254  0.00  0.00    +0.000 OA
ENDROOT
TORSDOF 0
REMARK  Name = ../refined-set-2016/2wqp/2wqp_pocket.pdb
REMARK  267 active torsions:
REMARK  status: ('A' for Active; 'I' for Inactive)
REMARK    1  A    between atoms: _1  and  _3
REMARK    2  A    between atoms: _3  and  _4
REMARK    3  A    between atoms: _3  and  _6
REMARK    4  A    between atoms: _6  and  _7
REMARK    5  A    between atoms: _10  and  _12
REMARK    6  A    between atoms: _12  and  _13
REMARK    7  A    between atoms: _12  and  _15
REMARK    8  A    between atoms: _15  and  _16
REMARK    9  A    between atoms: _16  and  _17
REMARK   10  A    between atoms: _20  and  _22
REMARK   11  A    between atoms: _22  and  _23
REMARK   12  A    between atoms: _22  and  _25
REMARK   13  A    between atoms: _25  and  _26
REMARK   14  A    between atoms: _29  and  _31
REMARK   15  A    between atoms: _31  and  _32
REMARK   16  A    between atoms: _34  and  _36
REMARK   17  A    between atoms: _36  and  _37
REMARK   18  A    between atoms: _36  and  _39
REMARK   19  A    between atoms: _39  and  _40
REMARK   20  A    between atoms: _43  and  _45
REMARK   21  A    between atoms: _45  and  _46
REMARK   22  A    between atoms: _45  and  _48
REMARK   23  A    between atoms: _48  and  _49
REMARK   24  A    between atoms: _54  and  _56
REMARK   25  A    between atoms: _56  and  _57
REMARK   26  A    between atoms: _56  and  _59
REMARK   27  A    between atoms: _59  and  _60
REMARK   28  A    between atoms: _60  and  _61
REMARK   29  A    between atoms: _61  and  _62
REMARK   30  A    between atoms: _62  and  _63
REMARK   31  A    between atoms: _67  and  _69
REMARK   32  A    between atoms: _69  and  _70
REMARK   33  A    between atoms: _69  and  _72
REMARK   34  A    between atoms: _72  and  _73
REMARK   35  A    between atoms: _78  and  _80
REMARK   36  A    between atoms: _80  and  _81
REMARK   37  A    between atoms: _80  and  _83
REMARK   38  A    between atoms: _83  and  _84
REMARK   39  A    between atoms: _84  and  _85
REMARK   40  A    between atoms: _90  and  _92
REMARK   41  A    between atoms: _92  and  _93
REMARK   42  A    between atoms: _92  and  _95
REMARK   43  A    between atoms: _95  and  _96
REMARK   44  A    between atoms: _99  and  _101
REMARK   45  A    between atoms: _101  and  _102
REMARK   46  A    between atoms: _101  and  _104
REMARK   47  A    between atoms: _104  and  _105
REMARK   48  A    between atoms: _110  and  _112
REMARK   49  A    between atoms: _112  and  _113
REMARK   50  A    between atoms: _112  and  _115
REMARK   51  A    between atoms: _115  and  _116
REMARK   52  A    between atoms: _116  and  _117
REMARK   53  A    between atoms: _120  and  _122
REMARK   54  A    between atoms: _122  and  _123
REMARK   55  A    between atoms: _122  and  _125
REMARK   56  A    between atoms: _125  and  _126
REMARK   57  A    between atoms: _130  and  _131
REMARK   58  A    between atoms: _136  and  _138
REMARK   59  A    between atoms: _138  and  _139
REMARK   60  A    between atoms: _141  and  _143
REMARK   61  A    between atoms: _143  and  _144
REMARK   62  A    between atoms: _143  and  _146
REMARK   63  A    between atoms: _146  and  _147
REMARK   64  A    between atoms: _152  and  _154
REMARK   65  A    between atoms: _154  and  _155
REMARK   66  A    between atoms: _158  and  _160
REMARK   67  A    between atoms: _160  and  _161
REMARK   68  A    between atoms: _160  and  _163
REMARK   69  A    between atoms: _166  and  _168
REMARK   70  A    between atoms: _168  and  _169
REMARK   71  A    between atoms: _168  and  _171
REMARK   72  A    between atoms: _171  and  _172
REMARK   73  A    between atoms: _174  and  _176
REMARK   74  A    between atoms: _176  and  _177
REMARK   75  A    between atoms: _176  and  _179
REMARK   76  A    between atoms: _179  and  _180
REMARK   77  A    between atoms: _183  and  _185
REMARK   78  A    between atoms: _185  and  _186
REMARK   79  A    between atoms: _185  and  _188
REMARK   80  A    between atoms: _188  and  _189
REMARK   81  A    between atoms: _192  and  _194
REMARK   82  A    between atoms: _194  and  _195
REMARK   83  A    between atoms: _194  and  _197
REMARK   84  A    between atoms: _197  and  _198
REMARK   85  A    between atoms: _198  and  _199
REMARK   86  A    between atoms: _201  and  _203
REMARK   87  A    between atoms: _203  and  _204
REMARK   88  A    between atoms: _203  and  _206
REMARK   89  A    between atoms: _206  and  _207
REMARK   90  A    between atoms: _207  and  _208
REMARK   91  A    between atoms: _208  and  _209
REMARK   92  A    between atoms: _218  and  _220
REMARK   93  A    between atoms: _220  and  _221
REMARK   94  A    between atoms: _220  and  _223
REMARK   95  A    between atoms: _225  and  _227
REMARK   96  A    between atoms: _227  and  _228
REMARK   97  A    between atoms: _227  and  _230
REMARK   98  A    between atoms: _230  and  _231
REMARK   99  A    between atoms: _233  and  _235
REMARK  100  A    between atoms: _235  and  _236
REMARK  101  A    between atoms: _235  and  _238
REMARK  102  A    between atoms: _238  and  _239
REMARK  103  A    between atoms: _242  and  _244
REMARK  104  A    between atoms: _244  and  _245
REMARK  105  A    between atoms: _244  and  _247
REMARK  106  A    between atoms: _247  and  _248
REMARK  107  A    between atoms: _251  and  _253
REMARK  108  A    between atoms: _253  and  _254
REMARK  109  A    between atoms: _253  and  _256
REMARK  110  A    between atoms: _256  and  _257
REMARK  111  A    between atoms: _263  and  _265
REMARK  112  A    between atoms: _265  and  _266
REMARK  113  A    between atoms: _265  and  _268
REMARK  114  A    between atoms: _268  and  _269
REMARK  115  A    between atoms: _269  and  _270
REMARK  116  A    between atoms: _270  and  _271
REMARK  117  A    between atoms: _271  and  _272
REMARK  118  A    between atoms: _276  and  _278
REMARK  119  A    between atoms: _278  and  _279
REMARK  120  A    between atoms: _278  and  _281
REMARK  121  A    between atoms: _281  and  _282
REMARK  122  A    between atoms: _285  and  _287
REMARK  123  A    between atoms: _287  and  _288
REMARK  124  A    between atoms: _290  and  _292
REMARK  125  A    between atoms: _292  and  _293
REMARK  126  A    between atoms: _292  and  _295
REMARK  127  A    between atoms: _295  and  _296
REMARK  128  A    between atoms: _298  and  _300
REMARK  129  A    between atoms: _300  and  _301
REMARK  130  A    between atoms: _303  and  _305
REMARK  131  A    between atoms: _305  and  _306
REMARK  132  A    between atoms: _305  and  _308
REMARK  133  A    between atoms: _308  and  _309
REMARK  134  A    between atoms: _309  and  _310
REMARK  135  A    between atoms: _313  and  _315
REMARK  136  A    between atoms: _315  and  _316
REMARK  137  A    between atoms: _315  and  _318
REMARK  138  A    between atoms: _320  and  _322
REMARK  139  A    between atoms: _322  and  _323
REMARK  140  A    between atoms: _322  and  _325
REMARK  141  A    between atoms: _325  and  _326
REMARK  142  A    between atoms: _329  and  _331
REMARK  143  A    between atoms: _331  and  _332
REMARK  144  A    between atoms: _331  and  _334
REMARK  145  A    between atoms: _334  and  _335
REMARK  146  A    between atoms: _338  and  _340
REMARK  147  A    between atoms: _340  and  _341
REMARK  148  A    between atoms: _340  and  _343
REMARK  149  A    between atoms: _343  and  _344
REMARK  150  A    between atoms: _346  and  _348
REMARK  151  A    between atoms: _348  and  _349
REMARK  152  A    between atoms: _348  and  _351
REMARK  153  A    between atoms: _351  and  _352
REMARK  154  A    between atoms: _355  and  _357
REMARK  155  A    between atoms: _357  and  _358
REMARK  156  A    between atoms: _360  and  _362
REMARK  157  A    between atoms: _362  and  _363
REMARK  158  A    between atoms: _362  and  _365
REMARK  159  A    between atoms: _365  and  _366
REMARK  160  A    between atoms: _366  and  _367
REMARK  161  A    between atoms: _369  and  _371
REMARK  162  A    between atoms: _371  and  _372
REMARK  163  A    between atoms: _371  and  _374
REMARK  164  A    between atoms: _374  and  _375
REMARK  165  A    between atoms: _380  and  _382
REMARK  166  A    between atoms: _382  and  _383
REMARK  167  A    between atoms: _382  and  _385
REMARK  168  A    between atoms: _385  and  _386
REMARK  169  A    between atoms: _389  and  _391
REMARK  170  A    between atoms: _391  and  _392
REMARK  171  A    between atoms: _391  and  _394
REMARK  172  A    between atoms: _394  and  _395
REMARK  173  A    between atoms: _400  and  _402
REMARK  174  A    between atoms: _402  and  _403
REMARK  175  A    between atoms: _402  and  _405
REMARK  176  A    between atoms: _407  and  _409
REMARK  177  A    between atoms: _409  and  _410
REMARK  178  A    between atoms: _409  and  _412
REMARK  179  A    between atoms: _412  and  _413
REMARK  180  A    between atoms: _416  and  _418
REMARK  181  A    between atoms: _418  and  _419
REMARK  182  A    between atoms: _418  and  _421
REMARK  183  A    between atoms: _421  and  _422
REMARK  184  A    between atoms: _427  and  _429
REMARK  185  A    between atoms: _429  and  _430
REMARK  186  A    between atoms: _429  and  _432
REMARK  187  A    between atoms: _432  and  _433
REMARK  188  A    between atoms: _436  and  _438
REMARK  189  A    between atoms: _438  and  _439
REMARK  190  A    between atoms: _438  and  _441
REMARK  191  A    between atoms: _441  and  _442
REMARK  192  A    between atoms: _447  and  _448
REMARK  193  A    between atoms: _450  and  _452
REMARK  194  A    between atoms: _452  and  _453
REMARK  195  A    between atoms: _452  and  _455
REMARK  196  A    between atoms: _455  and  _456
REMARK  197  A    between atoms: _459  and  _461
REMARK  198  A    between atoms: _461  and  _462
REMARK  199  A    between atoms: _461  and  _464
REMARK  200  A    between atoms: _464  and  _465
REMARK  201  A    between atoms: _467  and  _469
REMARK  202  A    between atoms: _469  and  _470
REMARK  203  A    between atoms: _469  and  _472
REMARK  204  A    between atoms: _472  and  _473
REMARK  205  A    between atoms: _476  and  _478
REMARK  206  A    between atoms: _478  and  _479
REMARK  207  A    between atoms: _478  and  _481
REMARK  208  A    between atoms: _481  and  _482
REMARK  209  A    between atoms: _486  and  MN_638
REMARK  210  A    between atoms: _487  and  _489
REMARK  211  A    between atoms: _489  and  _490
REMARK  212  A    between atoms: _489  and  _492
REMARK  213  A    between atoms: _492  and  _493
REMARK  214  A    between atoms: _493  and  _494
REMARK  215  A    between atoms: _497  and  _499
REMARK  216  A    between atoms: _499  and  _500
REMARK  217  A    between atoms: _499  and  _502
REMARK  218  A    between atoms: _502  and  _503
REMARK  219  A    between atoms: _503  and  _504
REMARK  220  A    between atoms: _504  and  _505
REMARK  221  A    between atoms: _514  and  _516
REMARK  222  A    between atoms: _516  and  _517
REMARK  223  A    between atoms: _516  and  _519
REMARK  224  A    between atoms: _519  and  _520
REMARK  225  A    between atoms: _524  and  MN_638
REMARK  226  A    between atoms: _525  and  _527
REMARK  227  A    between atoms: _527  and  _528
REMARK  228  A    between atoms: _531  and  _532
REMARK  229  A    between atoms: _537  and  _539
REMARK  230  A    between atoms: _539  and  _540
REMARK  231  A    between atoms: _539  and  _542
REMARK  232  A    between atoms: _542  and  _543
REMARK  233  A    between atoms: _546  and  _548
REMARK  234  A    between atoms: _548  and  _549
REMARK  235  A    between atoms: _548  and  _551
REMARK  236  A    between atoms: _551  and  _552
REMARK  237  A    between atoms: _555  and  _557
REMARK  238  A    between atoms: _557  and  _558
REMARK  239  A    between atoms: _557  and  _560
REMARK  240  A    between atoms: _563  and  _564
REMARK  241  A    between atoms: _569  and  _571
REMARK  242  A    between atoms: _571  and  _572
REMARK  243  A    between atoms: _571  and  _574
REMARK  244  A    between atoms: _574  and  _575
REMARK  245  A    between atoms: _578  and  _580
REMARK  246  A    between atoms: _580  and  _581
REMARK  247  A    between atoms: _580  and  _583
REMARK  248  A    between atoms: _583  and  _584
REMARK  249  A    between atoms: _584  and  _585
REMARK  250  A    between atoms: _585  and  _586
REMARK  251  A    between atoms: _586  and  _587
REMARK  252  A    between atoms: _591  and  _593
REMARK  253  A    between atoms: _593  and  _594
REMARK  254  A    between atoms: _593  and  _596
REMARK  255  A    between atoms: _596  and  _597
REMARK  256  A    between atoms: _603  and  _605
REMARK  257  A    between atoms: _605  and  _606
REMARK  258  A    between atoms: _609  and  _611
REMARK  259  A    between atoms: _611  and  _612
REMARK  260  A    between atoms: _611  and  _614
REMARK  261  A    between atoms: _614  and  _615
REMARK  262  A    between atoms: _621  and  _623
REMARK  263  A    between atoms: _623  and  _624
REMARK  264  A    between atoms: _623  and  _626
REMARK  265  A    between atoms: _626  and  _627
REMARK  266  A    between atoms: _627  and  _628
REMARK  267  A    between atoms: _628  and  _629
REMARK                            x       y       z     vdW  Elec       q    Type
REMARK                         _______ _______ _______ _____ _____    ______ ____
ROOT
ATOM      1  O   HOH     1      98.796 -29.262  59.330  0.00  0.00    +0.000 OA
ENDROOT
TORSDOF 0
REMARK  Name = ../refined-set-2016/2wqp/2wqp_pocket.pdb
REMARK  267 active torsions:
REMARK  status: ('A' for Active; 'I' for Inactive)
REMARK    1  A    between atoms: _1  and  _3
REMARK    2  A    between atoms: _3  and  _4
REMARK    3  A    between atoms: _3  and  _6
REMARK    4  A    between atoms: _6  and  _7
REMARK    5  A    between atoms: _10  and  _12
REMARK    6  A    between atoms: _12  and  _13
REMARK    7  A    between atoms: _12  and  _15
REMARK    8  A    between atoms: _15  and  _16
REMARK    9  A    between atoms: _16  and  _17
REMARK   10  A    between atoms: _20  and  _22
REMARK   11  A    between atoms: _22  and  _23
REMARK   12  A    between atoms: _22  and  _25
REMARK   13  A    between atoms: _25  and  _26
REMARK   14  A    between atoms: _29  and  _31
REMARK   15  A    between atoms: _31  and  _32
REMARK   16  A    between atoms: _34  and  _36
REMARK   17  A    between atoms: _36  and  _37
REMARK   18  A    between atoms: _36  and  _39
REMARK   19  A    between atoms: _39  and  _40
REMARK   20  A    between atoms: _43  and  _45
REMARK   21  A    between atoms: _45  and  _46
REMARK   22  A    between atoms: _45  and  _48
REMARK   23  A    between atoms: _48  and  _49
REMARK   24  A    between atoms: _54  and  _56
REMARK   25  A    between atoms: _56  and  _57
REMARK   26  A    between atoms: _56  and  _59
REMARK   27  A    between atoms: _59  and  _60
REMARK   28  A    between atoms: _60  and  _61
REMARK   29  A    between atoms: _61  and  _62
REMARK   30  A    between atoms: _62  and  _63
REMARK   31  A    between atoms: _67  and  _69
REMARK   32  A    between atoms: _69  and  _70
REMARK   33  A    between atoms: _69  and  _72
REMARK   34  A    between atoms: _72  and  _73
REMARK   35  A    between atoms: _78  and  _80
REMARK   36  A    between atoms: _80  and  _81
REMARK   37  A    between atoms: _80  and  _83
REMARK   38  A    between atoms: _83  and  _84
REMARK   39  A    between atoms: _84  and  _85
REMARK   40  A    between atoms: _90  and  _92
REMARK   41  A    between atoms: _92  and  _93
REMARK   42  A    between atoms: _92  and  _95
REMARK   43  A    between atoms: _95  and  _96
REMARK   44  A    between atoms: _99  and  _101
REMARK   45  A    between atoms: _101  and  _102
REMARK   46  A    between atoms: _101  and  _104
REMARK   47  A    between atoms: _104  and  _105
REMARK   48  A    between atoms: _110  and  _112
REMARK   49  A    between atoms: _112  and  _113
REMARK   50  A    between atoms: _112  and  _115
REMARK   51  A    between atoms: _115  and  _116
REMARK   52  A    between atoms: _116  and  _117
REMARK   53  A    between atoms: _120  and  _122
REMARK   54  A    between atoms: _122  and  _123
REMARK   55  A    between atoms: _122  and  _125
REMARK   56  A    between atoms: _125  and  _126
REMARK   57  A    between atoms: _130  and  _131
REMARK   58  A    between atoms: _136  and  _138
REMARK   59  A    between atoms: _138  and  _139
REMARK   60  A    between atoms: _141  and  _143
REMARK   61  A    between atoms: _143  and  _144
REMARK   62  A    between atoms: _143  and  _146
REMARK   63  A    between atoms: _146  and  _147
REMARK   64  A    between atoms: _152  and  _154
REMARK   65  A    between atoms: _154  and  _155
REMARK   66  A    between atoms: _158  and  _160
REMARK   67  A    between atoms: _160  and  _161
REMARK   68  A    between atoms: _160  and  _163
REMARK   69  A    between atoms: _166  and  _168
REMARK   70  A    between atoms: _168  and  _169
REMARK   71  A    between atoms: _168  and  _171
REMARK   72  A    between atoms: _171  and  _172
REMARK   73  A    between atoms: _174  and  _176
REMARK   74  A    between atoms: _176  and  _177
REMARK   75  A    between atoms: _176  and  _179
REMARK   76  A    between atoms: _179  and  _180
REMARK   77  A    between atoms: _183  and  _185
REMARK   78  A    between atoms: _185  and  _186
REMARK   79  A    between atoms: _185  and  _188
REMARK   80  A    between atoms: _188  and  _189
REMARK   81  A    between atoms: _192  and  _194
REMARK   82  A    between atoms: _194  and  _195
REMARK   83  A    between atoms: _194  and  _197
REMARK   84  A    between atoms: _197  and  _198
REMARK   85  A    between atoms: _198  and  _199
REMARK   86  A    between atoms: _201  and  _203
REMARK   87  A    between atoms: _203  and  _204
REMARK   88  A    between atoms: _203  and  _206
REMARK   89  A    between atoms: _206  and  _207
REMARK   90  A    between atoms: _207  and  _208
REMARK   91  A    between atoms: _208  and  _209
REMARK   92  A    between atoms: _218  and  _220
REMARK   93  A    between atoms: _220  and  _221
REMARK   94  A    between atoms: _220  and  _223
REMARK   95  A    between atoms: _225  and  _227
REMARK   96  A    between atoms: _227  and  _228
REMARK   97  A    between atoms: _227  and  _230
REMARK   98  A    between atoms: _230  and  _231
REMARK   99  A    between atoms: _233  and  _235
REMARK  100  A    between atoms: _235  and  _236
REMARK  101  A    between atoms: _235  and  _238
REMARK  102  A    between atoms: _238  and  _239
REMARK  103  A    between atoms: _242  and  _244
REMARK  104  A    between atoms: _244  and  _245
REMARK  105  A    between atoms: _244  and  _247
REMARK  106  A    between atoms: _247  and  _248
REMARK  107  A    between atoms: _251  and  _253
REMARK  108  A    between atoms: _253  and  _254
REMARK  109  A    between atoms: _253  and  _256
REMARK  110  A    between atoms: _256  and  _257
REMARK  111  A    between atoms: _263  and  _265
REMARK  112  A    between atoms: _265  and  _266
REMARK  113  A    between atoms: _265  and  _268
REMARK  114  A    between atoms: _268  and  _269
REMARK  115  A    between atoms: _269  and  _270
REMARK  116  A    between atoms: _270  and  _271
REMARK  117  A    between atoms: _271  and  _272
REMARK  118  A    between atoms: _276  and  _278
REMARK  119  A    between atoms: _278  and  _279
REMARK  120  A    between atoms: _278  and  _281
REMARK  121  A    between atoms: _281  and  _282
REMARK  122  A    between atoms: _285  and  _287
REMARK  123  A    between atoms: _287  and  _288
REMARK  124  A    between atoms: _290  and  _292
REMARK  125  A    between atoms: _292  and  _293
REMARK  126  A    between atoms: _292  and  _295
REMARK  127  A    between atoms: _295  and  _296
REMARK  128  A    between atoms: _298  and  _300
REMARK  129  A    between atoms: _300  and  _301
REMARK  130  A    between atoms: _303  and  _305
REMARK  131  A    between atoms: _305  and  _306
REMARK  132  A    between atoms: _305  and  _308
REMARK  133  A    between atoms: _308  and  _309
REMARK  134  A    between atoms: _309  and  _310
REMARK  135  A    between atoms: _313  and  _315
REMARK  136  A    between atoms: _315  and  _316
REMARK  137  A    between atoms: _315  and  _318
REMARK  138  A    between atoms: _320  and  _322
REMARK  139  A    between atoms: _322  and  _323
REMARK  140  A    between atoms: _322  and  _325
REMARK  141  A    between atoms: _325  and  _326
REMARK  142  A    between atoms: _329  and  _331
REMARK  143  A    between atoms: _331  and  _332
REMARK  144  A    between atoms: _331  and  _334
REMARK  145  A    between atoms: _334  and  _335
REMARK  146  A    between atoms: _338  and  _340
REMARK  147  A    between atoms: _340  and  _341
REMARK  148  A    between atoms: _340  and  _343
REMARK  149  A    between atoms: _343  and  _344
REMARK  150  A    between atoms: _346  and  _348
REMARK  151  A    between atoms: _348  and  _349
REMARK  152  A    between atoms: _348  and  _351
REMARK  153  A    between atoms: _351  and  _352
REMARK  154  A    between atoms: _355  and  _357
REMARK  155  A    between atoms: _357  and  _358
REMARK  156  A    between atoms: _360  and  _362
REMARK  157  A    between atoms: _362  and  _363
REMARK  158  A    between atoms: _362  and  _365
REMARK  159  A    between atoms: _365  and  _366
REMARK  160  A    between atoms: _366  and  _367
REMARK  161  A    between atoms: _369  and  _371
REMARK  162  A    between atoms: _371  and  _372
REMARK  163  A    between atoms: _371  and  _374
REMARK  164  A    between atoms: _374  and  _375
REMARK  165  A    between atoms: _380  and  _382
REMARK  166  A    between atoms: _382  and  _383
REMARK  167  A    between atoms: _382  and  _385
REMARK  168  A    between atoms: _385  and  _386
REMARK  169  A    between atoms: _389  and  _391
REMARK  170  A    between atoms: _391  and  _392
REMARK  171  A    between atoms: _391  and  _394
REMARK  172  A    between atoms: _394  and  _395
REMARK  173  A    between atoms: _400  and  _402
REMARK  174  A    between atoms: _402  and  _403
REMARK  175  A    between atoms: _402  and  _405
REMARK  176  A    between atoms: _407  and  _409
REMARK  177  A    between atoms: _409  and  _410
REMARK  178  A    between atoms: _409  and  _412
REMARK  179  A    between atoms: _412  and  _413
REMARK  180  A    between atoms: _416  and  _418
REMARK  181  A    between atoms: _418  and  _419
REMARK  182  A    between atoms: _418  and  _421
REMARK  183  A    between atoms: _421  and  _422
REMARK  184  A    between atoms: _427  and  _429
REMARK  185  A    between atoms: _429  and  _430
REMARK  186  A    between atoms: _429  and  _432
REMARK  187  A    between atoms: _432  and  _433
REMARK  188  A    between atoms: _436  and  _438
REMARK  189  A    between atoms: _438  and  _439
REMARK  190  A    between atoms: _438  and  _441
REMARK  191  A    between atoms: _441  and  _442
REMARK  192  A    between atoms: _447  and  _448
REMARK  193  A    between atoms: _450  and  _452
REMARK  194  A    between atoms: _452  and  _453
REMARK  195  A    between atoms: _452  and  _455
REMARK  196  A    between atoms: _455  and  _456
REMARK  197  A    between atoms: _459  and  _461
REMARK  198  A    between atoms: _461  and  _462
REMARK  199  A    between atoms: _461  and  _464
REMARK  200  A    between atoms: _464  and  _465
REMARK  201  A    between atoms: _467  and  _469
REMARK  202  A    between atoms: _469  and  _470
REMARK  203  A    between atoms: _469  and  _472
REMARK  204  A    between atoms: _472  and  _473
REMARK  205  A    between atoms: _476  and  _478
REMARK  206  A    between atoms: _478  and  _479
REMARK  207  A    between atoms: _478  and  _481
REMARK  208  A    between atoms: _481  and  _482
REMARK  209  A    between atoms: _486  and  MN_638
REMARK  210  A    between atoms: _487  and  _489
REMARK  211  A    between atoms: _489  and  _490
REMARK  212  A    between atoms: _489  and  _492
REMARK  213  A    between atoms: _492  and  _493
REMARK  214  A    between atoms: _493  and  _494
REMARK  215  A    between atoms: _497  and  _499
REMARK  216  A    between atoms: _499  and  _500
REMARK  217  A    between atoms: _499  and  _502
REMARK  218  A    between atoms: _502  and  _503
REMARK  219  A    between atoms: _503  and  _504
REMARK  220  A    between atoms: _504  and  _505
REMARK  221  A    between atoms: _514  and  _516
REMARK  222  A    between atoms: _516  and  _517
REMARK  223  A    between atoms: _516  and  _519
REMARK  224  A    between atoms: _519  and  _520
REMARK  225  A    between atoms: _524  and  MN_638
REMARK  226  A    between atoms: _525  and  _527
REMARK  227  A    between atoms: _527  and  _528
REMARK  228  A    between atoms: _531  and  _532
REMARK  229  A    between atoms: _537  and  _539
REMARK  230  A    between atoms: _539  and  _540
REMARK  231  A    between atoms: _539  and  _542
REMARK  232  A    between atoms: _542  and  _543
REMARK  233  A    between atoms: _546  and  _548
REMARK  234  A    between atoms: _548  and  _549
REMARK  235  A    between atoms: _548  and  _551
REMARK  236  A    between atoms: _551  and  _552
REMARK  237  A    between atoms: _555  and  _557
REMARK  238  A    between atoms: _557  and  _558
REMARK  239  A    between atoms: _557  and  _560
REMARK  240  A    between atoms: _563  and  _564
REMARK  241  A    between atoms: _569  and  _571
REMARK  242  A    between atoms: _571  and  _572
REMARK  243  A    between atoms: _571  and  _574
REMARK  244  A    between atoms: _574  and  _575
REMARK  245  A    between atoms: _578  and  _580
REMARK  246  A    between atoms: _580  and  _581
REMARK  247  A    between atoms: _580  and  _583
REMARK  248  A    between atoms: _583  and  _584
REMARK  249  A    between atoms: _584  and  _585
REMARK  250  A    between atoms: _585  and  _586
REMARK  251  A    between atoms: _586  and  _587
REMARK  252  A    between atoms: _591  and  _593
REMARK  253  A    between atoms: _593  and  _594
REMARK  254  A    between atoms: _593  and  _596
REMARK  255  A    between atoms: _596  and  _597
REMARK  256  A    between atoms: _603  and  _605
REMARK  257  A    between atoms: _605  and  _606
REMARK  258  A    between atoms: _609  and  _611
REMARK  259  A    between atoms: _611  and  _612
REMARK  260  A    between atoms: _611  and  _614
REMARK  261  A    between atoms: _614  and  _615
REMARK  262  A    between atoms: _621  and  _623
REMARK  263  A    between atoms: _623  and  _624
REMARK  264  A    between atoms: _623  and  _626
REMARK  265  A    between atoms: _626  and  _627
REMARK  266  A    between atoms: _627  and  _628
REMARK  267  A    between atoms: _628  and  _629
REMARK                            x       y       z     vdW  Elec       q    Type
REMARK                         _______ _______ _______ _____ _____    ______ ____
ROOT
ATOM      1  O   HOH     1      86.725 -24.193  49.748  0.00  0.00    +0.000 OA
ENDROOT
TORSDOF 0
REMARK  Name = ../refined-set-2016/2wqp/2wqp_pocket.pdb
REMARK  267 active torsions:
REMARK  status: ('A' for Active; 'I' for Inactive)
REMARK    1  A    between atoms: _1  and  _3
REMARK    2  A    between atoms: _3  and  _4
REMARK    3  A    between atoms: _3  and  _6
REMARK    4  A    between atoms: _6  and  _7
REMARK    5  A    between atoms: _10  and  _12
REMARK    6  A    between atoms: _12  and  _13
REMARK    7  A    between atoms: _12  and  _15
REMARK    8  A    between atoms: _15  and  _16
REMARK    9  A    between atoms: _16  and  _17
REMARK   10  A    between atoms: _20  and  _22
REMARK   11  A    between atoms: _22  and  _23
REMARK   12  A    between atoms: _22  and  _25
REMARK   13  A    between atoms: _25  and  _26
REMARK   14  A    between atoms: _29  and  _31
REMARK   15  A    between atoms: _31  and  _32
REMARK   16  A    between atoms: _34  and  _36
REMARK   17  A    between atoms: _36  and  _37
REMARK   18  A    between atoms: _36  and  _39
REMARK   19  A    between atoms: _39  and  _40
REMARK   20  A    between atoms: _43  and  _45
REMARK   21  A    between atoms: _45  and  _46
REMARK   22  A    between atoms: _45  and  _48
REMARK   23  A    between atoms: _48  and  _49
REMARK   24  A    between atoms: _54  and  _56
REMARK   25  A    between atoms: _56  and  _57
REMARK   26  A    between atoms: _56  and  _59
REMARK   27  A    between atoms: _59  and  _60
REMARK   28  A    between atoms: _60  and  _61
REMARK   29  A    between atoms: _61  and  _62
REMARK   30  A    between atoms: _62  and  _63
REMARK   31  A    between atoms: _67  and  _69
REMARK   32  A    between atoms: _69  and  _70
REMARK   33  A    between atoms: _69  and  _72
REMARK   34  A    between atoms: _72  and  _73
REMARK   35  A    between atoms: _78  and  _80
REMARK   36  A    between atoms: _80  and  _81
REMARK   37  A    between atoms: _80  and  _83
REMARK   38  A    between atoms: _83  and  _84
REMARK   39  A    between atoms: _84  and  _85
REMARK   40  A    between atoms: _90  and  _92
REMARK   41  A    between atoms: _92  and  _93
REMARK   42  A    between atoms: _92  and  _95
REMARK   43  A    between atoms: _95  and  _96
REMARK   44  A    between atoms: _99  and  _101
REMARK   45  A    between atoms: _101  and  _102
REMARK   46  A    between atoms: _101  and  _104
REMARK   47  A    between atoms: _104  and  _105
REMARK   48  A    between atoms: _110  and  _112
REMARK   49  A    between atoms: _112  and  _113
REMARK   50  A    between atoms: _112  and  _115
REMARK   51  A    between atoms: _115  and  _116
REMARK   52  A    between atoms: _116  and  _117
REMARK   53  A    between atoms: _120  and  _122
REMARK   54  A    between atoms: _122  and  _123
REMARK   55  A    between atoms: _122  and  _125
REMARK   56  A    between atoms: _125  and  _126
REMARK   57  A    between atoms: _130  and  _131
REMARK   58  A    between atoms: _136  and  _138
REMARK   59  A    between atoms: _138  and  _139
REMARK   60  A    between atoms: _141  and  _143
REMARK   61  A    between atoms: _143  and  _144
REMARK   62  A    between atoms: _143  and  _146
REMARK   63  A    between atoms: _146  and  _147
REMARK   64  A    between atoms: _152  and  _154
REMARK   65  A    between atoms: _154  and  _155
REMARK   66  A    between atoms: _158  and  _160
REMARK   67  A    between atoms: _160  and  _161
REMARK   68  A    between atoms: _160  and  _163
REMARK   69  A    between atoms: _166  and  _168
REMARK   70  A    between atoms: _168  and  _169
REMARK   71  A    between atoms: _168  and  _171
REMARK   72  A    between atoms: _171  and  _172
REMARK   73  A    between atoms: _174  and  _176
REMARK   74  A    between atoms: _176  and  _177
REMARK   75  A    between atoms: _176  and  _179
REMARK   76  A    between atoms: _179  and  _180
REMARK   77  A    between atoms: _183  and  _185
REMARK   78  A    between atoms: _185  and  _186
REMARK   79  A    between atoms: _185  and  _188
REMARK   80  A    between atoms: _188  and  _189
REMARK   81  A    between atoms: _192  and  _194
REMARK   82  A    between atoms: _194  and  _195
REMARK   83  A    between atoms: _194  and  _197
REMARK   84  A    between atoms: _197  and  _198
REMARK   85  A    between atoms: _198  and  _199
REMARK   86  A    between atoms: _201  and  _203
REMARK   87  A    between atoms: _203  and  _204
REMARK   88  A    between atoms: _203  and  _206
REMARK   89  A    between atoms: _206  and  _207
REMARK   90  A    between atoms: _207  and  _208
REMARK   91  A    between atoms: _208  and  _209
REMARK   92  A    between atoms: _218  and  _220
REMARK   93  A    between atoms: _220  and  _221
REMARK   94  A    between atoms: _220  and  _223
REMARK   95  A    between atoms: _225  and  _227
REMARK   96  A    between atoms: _227  and  _228
REMARK   97  A    between atoms: _227  and  _230
REMARK   98  A    between atoms: _230  and  _231
REMARK   99  A    between atoms: _233  and  _235
REMARK  100  A    between atoms: _235  and  _236
REMARK  101  A    between atoms: _235  and  _238
REMARK  102  A    between atoms: _238  and  _239
REMARK  103  A    between atoms: _242  and  _244
REMARK  104  A    between atoms: _244  and  _245
REMARK  105  A    between atoms: _244  and  _247
REMARK  106  A    between atoms: _247  and  _248
REMARK  107  A    between atoms: _251  and  _253
REMARK  108  A    between atoms: _253  and  _254
REMARK  109  A    between atoms: _253  and  _256
REMARK  110  A    between atoms: _256  and  _257
REMARK  111  A    between atoms: _263  and  _265
REMARK  112  A    between atoms: _265  and  _266
REMARK  113  A    between atoms: _265  and  _268
REMARK  114  A    between atoms: _268  and  _269
REMARK  115  A    between atoms: _269  and  _270
REMARK  116  A    between atoms: _270  and  _271
REMARK  117  A    between atoms: _271  and  _272
REMARK  118  A    between atoms: _276  and  _278
REMARK  119  A    between atoms: _278  and  _279
REMARK  120  A    between atoms: _278  and  _281
REMARK  121  A    between atoms: _281  and  _282
REMARK  122  A    between atoms: _285  and  _287
REMARK  123  A    between atoms: _287  and  _288
REMARK  124  A    between atoms: _290  and  _292
REMARK  125  A    between atoms: _292  and  _293
REMARK  126  A    between atoms: _292  and  _295
REMARK  127  A    between atoms: _295  and  _296
REMARK  128  A    between atoms: _298  and  _300
REMARK  129  A    between atoms: _300  and  _301
REMARK  130  A    between atoms: _303  and  _305
REMARK  131  A    between atoms: _305  and  _306
REMARK  132  A    between atoms: _305  and  _308
REMARK  133  A    between atoms: _308  and  _309
REMARK  134  A    between atoms: _309  and  _310
REMARK  135  A    between atoms: _313  and  _315
REMARK  136  A    between atoms: _315  and  _316
REMARK  137  A    between atoms: _315  and  _318
REMARK  138  A    between atoms: _320  and  _322
REMARK  139  A    between atoms: _322  and  _323
REMARK  140  A    between atoms: _322  and  _325
REMARK  141  A    between atoms: _325  and  _326
REMARK  142  A    between atoms: _329  and  _331
REMARK  143  A    between atoms: _331  and  _332
REMARK  144  A    between atoms: _331  and  _334
REMARK  145  A    between atoms: _334  and  _335
REMARK  146  A    between atoms: _338  and  _340
REMARK  147  A    between atoms: _340  and  _341
REMARK  148  A    between atoms: _340  and  _343
REMARK  149  A    between atoms: _343  and  _344
REMARK  150  A    between atoms: _346  and  _348
REMARK  151  A    between atoms: _348  and  _349
REMARK  152  A    between atoms: _348  and  _351
REMARK  153  A    between atoms: _351  and  _352
REMARK  154  A    between atoms: _355  and  _357
REMARK  155  A    between atoms: _357  and  _358
REMARK  156  A    between atoms: _360  and  _362
REMARK  157  A    between atoms: _362  and  _363
REMARK  158  A    between atoms: _362  and  _365
REMARK  159  A    between atoms: _365  and  _366
REMARK  160  A    between atoms: _366  and  _367
REMARK  161  A    between atoms: _369  and  _371
REMARK  162  A    between atoms: _371  and  _372
REMARK  163  A    between atoms: _371  and  _374
REMARK  164  A    between atoms: _374  and  _375
REMARK  165  A    between atoms: _380  and  _382
REMARK  166  A    between atoms: _382  and  _383
REMARK  167  A    between atoms: _382  and  _385
REMARK  168  A    between atoms: _385  and  _386
REMARK  169  A    between atoms: _389  and  _391
REMARK  170  A    between atoms: _391  and  _392
REMARK  171  A    between atoms: _391  and  _394
REMARK  172  A    between atoms: _394  and  _395
REMARK  173  A    between atoms: _400  and  _402
REMARK  174  A    between atoms: _402  and  _403
REMARK  175  A    between atoms: _402  and  _405
REMARK  176  A    between atoms: _407  and  _409
REMARK  177  A    between atoms: _409  and  _410
REMARK  178  A    between atoms: _409  and  _412
REMARK  179  A    between atoms: _412  and  _413
REMARK  180  A    between atoms: _416  and  _418
REMARK  181  A    between atoms: _418  and  _419
REMARK  182  A    between atoms: _418  and  _421
REMARK  183  A    between atoms: _421  and  _422
REMARK  184  A    between atoms: _427  and  _429
REMARK  185  A    between atoms: _429  and  _430
REMARK  186  A    between atoms: _429  and  _432
REMARK  187  A    between atoms: _432  and  _433
REMARK  188  A    between atoms: _436  and  _438
REMARK  189  A    between atoms: _438  and  _439
REMARK  190  A    between atoms: _438  and  _441
REMARK  191  A    between atoms: _441  and  _442
REMARK  192  A    between atoms: _447  and  _448
REMARK  193  A    between atoms: _450  and  _452
REMARK  194  A    between atoms: _452  and  _453
REMARK  195  A    between atoms: _452  and  _455
REMARK  196  A    between atoms: _455  and  _456
REMARK  197  A    between atoms: _459  and  _461
REMARK  198  A    between atoms: _461  and  _462
REMARK  199  A    between atoms: _461  and  _464
REMARK  200  A    between atoms: _464  and  _465
REMARK  201  A    between atoms: _467  and  _469
REMARK  202  A    between atoms: _469  and  _470
REMARK  203  A    between atoms: _469  and  _472
REMARK  204  A    between atoms: _472  and  _473
REMARK  205  A    between atoms: _476  and  _478
REMARK  206  A    between atoms: _478  and  _479
REMARK  207  A    between atoms: _478  and  _481
REMARK  208  A    between atoms: _481  and  _482
REMARK  209  A    between atoms: _486  and  MN_638
REMARK  210  A    between atoms: _487  and  _489
REMARK  211  A    between atoms: _489  and  _490
REMARK  212  A    between atoms: _489  and  _492
REMARK  213  A    between atoms: _492  and  _493
REMARK  214  A    between atoms: _493  and  _494
REMARK  215  A    between atoms: _497  and  _499
REMARK  216  A    between atoms: _499  and  _500
REMARK  217  A    between atoms: _499  and  _502
REMARK  218  A    between atoms: _502  and  _503
REMARK  219  A    between atoms: _503  and  _504
REMARK  220  A    between atoms: _504  and  _505
REMARK  221  A    between atoms: _514  and  _516
REMARK  222  A    between atoms: _516  and  _517
REMARK  223  A    between atoms: _516  and  _519
REMARK  224  A    between atoms: _519  and  _520
REMARK  225  A    between atoms: _524  and  MN_638
REMARK  226  A    between atoms: _525  and  _527
REMARK  227  A    between atoms: _527  and  _528
REMARK  228  A    between atoms: _531  and  _532
REMARK  229  A    between atoms: _537  and  _539
REMARK  230  A    between atoms: _539  and  _540
REMARK  231  A    between atoms: _539  and  _542
REMARK  232  A    between atoms: _542  and  _543
REMARK  233  A    between atoms: _546  and  _548
REMARK  234  A    between atoms: _548  and  _549
REMARK  235  A    between atoms: _548  and  _551
REMARK  236  A    between atoms: _551  and  _552
REMARK  237  A    between atoms: _555  and  _557
REMARK  238  A    between atoms: _557  and  _558
REMARK  239  A    between atoms: _557  and  _560
REMARK  240  A    between atoms: _563  and  _564
REMARK  241  A    between atoms: _569  and  _571
REMARK  242  A    between atoms: _571  and  _572
REMARK  243  A    between atoms: _571  and  _574
REMARK  244  A    between atoms: _574  and  _575
REMARK  245  A    between atoms: _578  and  _580
REMARK  246  A    between atoms: _580  and  _581
REMARK  247  A    between atoms: _580  and  _583
REMARK  248  A    between atoms: _583  and  _584
REMARK  249  A    between atoms: _584  and  _585
REMARK  250  A    between atoms: _585  and  _586
REMARK  251  A    between atoms: _586  and  _587
REMARK  252  A    between atoms: _591  and  _593
REMARK  253  A    between atoms: _593  and  _594
REMARK  254  A    between atoms: _593  and  _596
REMARK  255  A    between atoms: _596  and  _597
REMARK  256  A    between atoms: _603  and  _605
REMARK  257  A    between atoms: _605  and  _606
REMARK  258  A    between atoms: _609  and  _611
REMARK  259  A    between atoms: _611  and  _612
REMARK  260  A    between atoms: _611  and  _614
REMARK  261  A    between atoms: _614  and  _615
REMARK  262  A    between atoms: _621  and  _623
REMARK  263  A    between atoms: _623  and  _624
REMARK  264  A    between atoms: _623  and  _626
REMARK  265  A    between atoms: _626  and  _627
REMARK  266  A    between atoms: _627  and  _628
REMARK  267  A    between atoms: _628  and  _629
REMARK                            x       y       z     vdW  Elec       q    Type
REMARK                         _______ _______ _______ _____ _____    ______ ____
ROOT
ATOM      1  O   HOH     1      93.130 -15.157  47.203  0.00  0.00    +0.000 OA
ENDROOT
TORSDOF 0
REMARK  Name = ../refined-set-2016/2wqp/2wqp_pocket.pdb
REMARK  267 active torsions:
REMARK  status: ('A' for Active; 'I' for Inactive)
REMARK    1  A    between atoms: _1  and  _3
REMARK    2  A    between atoms: _3  and  _4
REMARK    3  A    between atoms: _3  and  _6
REMARK    4  A    between atoms: _6  and  _7
REMARK    5  A    between atoms: _10  and  _12
REMARK    6  A    between atoms: _12  and  _13
REMARK    7  A    between atoms: _12  and  _15
REMARK    8  A    between atoms: _15  and  _16
REMARK    9  A    between atoms: _16  and  _17
REMARK   10  A    between atoms: _20  and  _22
REMARK   11  A    between atoms: _22  and  _23
REMARK   12  A    between atoms: _22  and  _25
REMARK   13  A    between atoms: _25  and  _26
REMARK   14  A    between atoms: _29  and  _31
REMARK   15  A    between atoms: _31  and  _32
REMARK   16  A    between atoms: _34  and  _36
REMARK   17  A    between atoms: _36  and  _37
REMARK   18  A    between atoms: _36  and  _39
REMARK   19  A    between atoms: _39  and  _40
REMARK   20  A    between atoms: _43  and  _45
REMARK   21  A    between atoms: _45  and  _46
REMARK   22  A    between atoms: _45  and  _48
REMARK   23  A    between atoms: _48  and  _49
REMARK   24  A    between atoms: _54  and  _56
REMARK   25  A    between atoms: _56  and  _57
REMARK   26  A    between atoms: _56  and  _59
REMARK   27  A    between atoms: _59  and  _60
REMARK   28  A    between atoms: _60  and  _61
REMARK   29  A    between atoms: _61  and  _62
REMARK   30  A    between atoms: _62  and  _63
REMARK   31  A    between atoms: _67  and  _69
REMARK   32  A    between atoms: _69  and  _70
REMARK   33  A    between atoms: _69  and  _72
REMARK   34  A    between atoms: _72  and  _73
REMARK   35  A    between atoms: _78  and  _80
REMARK   36  A    between atoms: _80  and  _81
REMARK   37  A    between atoms: _80  and  _83
REMARK   38  A    between atoms: _83  and  _84
REMARK   39  A    between atoms: _84  and  _85
REMARK   40  A    between atoms: _90  and  _92
REMARK   41  A    between atoms: _92  and  _93
REMARK   42  A    between atoms: _92  and  _95
REMARK   43  A    between atoms: _95  and  _96
REMARK   44  A    between atoms: _99  and  _101
REMARK   45  A    between atoms: _101  and  _102
REMARK   46  A    between atoms: _101  and  _104
REMARK   47  A    between atoms: _104  and  _105
REMARK   48  A    between atoms: _110  and  _112
REMARK   49  A    between atoms: _112  and  _113
REMARK   50  A    between atoms: _112  and  _115
REMARK   51  A    between atoms: _115  and  _116
REMARK   52  A    between atoms: _116  and  _117
REMARK   53  A    between atoms: _120  and  _122
REMARK   54  A    between atoms: _122  and  _123
REMARK   55  A    between atoms: _122  and  _125
REMARK   56  A    between atoms: _125  and  _126
REMARK   57  A    between atoms: _130  and  _131
REMARK   58  A    between atoms: _136  and  _138
REMARK   59  A    between atoms: _138  and  _139
REMARK   60  A    between atoms: _141  and  _143
REMARK   61  A    between atoms: _143  and  _144
REMARK   62  A    between atoms: _143  and  _146
REMARK   63  A    between atoms: _146  and  _147
REMARK   64  A    between atoms: _152  and  _154
REMARK   65  A    between atoms: _154  and  _155
REMARK   66  A    between atoms: _158  and  _160
REMARK   67  A    between atoms: _160  and  _161
REMARK   68  A    between atoms: _160  and  _163
REMARK   69  A    between atoms: _166  and  _168
REMARK   70  A    between atoms: _168  and  _169
REMARK   71  A    between atoms: _168  and  _171
REMARK   72  A    between atoms: _171  and  _172
REMARK   73  A    between atoms: _174  and  _176
REMARK   74  A    between atoms: _176  and  _177
REMARK   75  A    between atoms: _176  and  _179
REMARK   76  A    between atoms: _179  and  _180
REMARK   77  A    between atoms: _183  and  _185
REMARK   78  A    between atoms: _185  and  _186
REMARK   79  A    between atoms: _185  and  _188
REMARK   80  A    between atoms: _188  and  _189
REMARK   81  A    between atoms: _192  and  _194
REMARK   82  A    between atoms: _194  and  _195
REMARK   83  A    between atoms: _194  and  _197
REMARK   84  A    between atoms: _197  and  _198
REMARK   85  A    between atoms: _198  and  _199
REMARK   86  A    between atoms: _201  and  _203
REMARK   87  A    between atoms: _203  and  _204
REMARK   88  A    between atoms: _203  and  _206
REMARK   89  A    between atoms: _206  and  _207
REMARK   90  A    between atoms: _207  and  _208
REMARK   91  A    between atoms: _208  and  _209
REMARK   92  A    between atoms: _218  and  _220
REMARK   93  A    between atoms: _220  and  _221
REMARK   94  A    between atoms: _220  and  _223
REMARK   95  A    between atoms: _225  and  _227
REMARK   96  A    between atoms: _227  and  _228
REMARK   97  A    between atoms: _227  and  _230
REMARK   98  A    between atoms: _230  and  _231
REMARK   99  A    between atoms: _233  and  _235
REMARK  100  A    between atoms: _235  and  _236
REMARK  101  A    between atoms: _235  and  _238
REMARK  102  A    between atoms: _238  and  _239
REMARK  103  A    between atoms: _242  and  _244
REMARK  104  A    between atoms: _244  and  _245
REMARK  105  A    between atoms: _244  and  _247
REMARK  106  A    between atoms: _247  and  _248
REMARK  107  A    between atoms: _251  and  _253
REMARK  108  A    between atoms: _253  and  _254
REMARK  109  A    between atoms: _253  and  _256
REMARK  110  A    between atoms: _256  and  _257
REMARK  111  A    between atoms: _263  and  _265
REMARK  112  A    between atoms: _265  and  _266
REMARK  113  A    between atoms: _265  and  _268
REMARK  114  A    between atoms: _268  and  _269
REMARK  115  A    between atoms: _269  and  _270
REMARK  116  A    between atoms: _270  and  _271
REMARK  117  A    between atoms: _271  and  _272
REMARK  118  A    between atoms: _276  and  _278
REMARK  119  A    between atoms: _278  and  _279
REMARK  120  A    between atoms: _278  and  _281
REMARK  121  A    between atoms: _281  and  _282
REMARK  122  A    between atoms: _285  and  _287
REMARK  123  A    between atoms: _287  and  _288
REMARK  124  A    between atoms: _290  and  _292
REMARK  125  A    between atoms: _292  and  _293
REMARK  126  A    between atoms: _292  and  _295
REMARK  127  A    between atoms: _295  and  _296
REMARK  128  A    between atoms: _298  and  _300
REMARK  129  A    between atoms: _300  and  _301
REMARK  130  A    between atoms: _303  and  _305
REMARK  131  A    between atoms: _305  and  _306
REMARK  132  A    between atoms: _305  and  _308
REMARK  133  A    between atoms: _308  and  _309
REMARK  134  A    between atoms: _309  and  _310
REMARK  135  A    between atoms: _313  and  _315
REMARK  136  A    between atoms: _315  and  _316
REMARK  137  A    between atoms: _315  and  _318
REMARK  138  A    between atoms: _320  and  _322
REMARK  139  A    between atoms: _322  and  _323
REMARK  140  A    between atoms: _322  and  _325
REMARK  141  A    between atoms: _325  and  _326
REMARK  142  A    between atoms: _329  and  _331
REMARK  143  A    between atoms: _331  and  _332
REMARK  144  A    between atoms: _331  and  _334
REMARK  145  A    between atoms: _334  and  _335
REMARK  146  A    between atoms: _338  and  _340
REMARK  147  A    between atoms: _340  and  _341
REMARK  148  A    between atoms: _340  and  _343
REMARK  149  A    between atoms: _343  and  _344
REMARK  150  A    between atoms: _346  and  _348
REMARK  151  A    between atoms: _348  and  _349
REMARK  152  A    between atoms: _348  and  _351
REMARK  153  A    between atoms: _351  and  _352
REMARK  154  A    between atoms: _355  and  _357
REMARK  155  A    between atoms: _357  and  _358
REMARK  156  A    between atoms: _360  and  _362
REMARK  157  A    between atoms: _362  and  _363
REMARK  158  A    between atoms: _362  and  _365
REMARK  159  A    between atoms: _365  and  _366
REMARK  160  A    between atoms: _366  and  _367
REMARK  161  A    between atoms: _369  and  _371
REMARK  162  A    between atoms: _371  and  _372
REMARK  163  A    between atoms: _371  and  _374
REMARK  164  A    between atoms: _374  and  _375
REMARK  165  A    between atoms: _380  and  _382
REMARK  166  A    between atoms: _382  and  _383
REMARK  167  A    between atoms: _382  and  _385
REMARK  168  A    between atoms: _385  and  _386
REMARK  169  A    between atoms: _389  and  _391
REMARK  170  A    between atoms: _391  and  _392
REMARK  171  A    between atoms: _391  and  _394
REMARK  172  A    between atoms: _394  and  _395
REMARK  173  A    between atoms: _400  and  _402
REMARK  174  A    between atoms: _402  and  _403
REMARK  175  A    between atoms: _402  and  _405
REMARK  176  A    between atoms: _407  and  _409
REMARK  177  A    between atoms: _409  and  _410
REMARK  178  A    between atoms: _409  and  _412
REMARK  179  A    between atoms: _412  and  _413
REMARK  180  A    between atoms: _416  and  _418
REMARK  181  A    between atoms: _418  and  _419
REMARK  182  A    between atoms: _418  and  _421
REMARK  183  A    between atoms: _421  and  _422
REMARK  184  A    between atoms: _427  and  _429
REMARK  185  A    between atoms: _429  and  _430
REMARK  186  A    between atoms: _429  and  _432
REMARK  187  A    between atoms: _432  and  _433
REMARK  188  A    between atoms: _436  and  _438
REMARK  189  A    between atoms: _438  and  _439
REMARK  190  A    between atoms: _438  and  _441
REMARK  191  A    between atoms: _441  and  _442
REMARK  192  A    between atoms: _447  and  _448
REMARK  193  A    between atoms: _450  and  _452
REMARK  194  A    between atoms: _452  and  _453
REMARK  195  A    between atoms: _452  and  _455
REMARK  196  A    between atoms: _455  and  _456
REMARK  197  A    between atoms: _459  and  _461
REMARK  198  A    between atoms: _461  and  _462
REMARK  199  A    between atoms: _461  and  _464
REMARK  200  A    between atoms: _464  and  _465
REMARK  201  A    between atoms: _467  and  _469
REMARK  202  A    between atoms: _469  and  _470
REMARK  203  A    between atoms: _469  and  _472
REMARK  204  A    between atoms: _472  and  _473
REMARK  205  A    between atoms: _476  and  _478
REMARK  206  A    between atoms: _478  and  _479
REMARK  207  A    between atoms: _478  and  _481
REMARK  208  A    between atoms: _481  and  _482
REMARK  209  A    between atoms: _486  and  MN_638
REMARK  210  A    between atoms: _487  and  _489
REMARK  211  A    between atoms: _489  and  _490
REMARK  212  A    between atoms: _489  and  _492
REMARK  213  A    between atoms: _492  and  _493
REMARK  214  A    between atoms: _493  and  _494
REMARK  215  A    between atoms: _497  and  _499
REMARK  216  A    between atoms: _499  and  _500
REMARK  217  A    between atoms: _499  and  _502
REMARK  218  A    between atoms: _502  and  _503
REMARK  219  A    between atoms: _503  and  _504
REMARK  220  A    between atoms: _504  and  _505
REMARK  221  A    between atoms: _514  and  _516
REMARK  222  A    between atoms: _516  and  _517
REMARK  223  A    between atoms: _516  and  _519
REMARK  224  A    between atoms: _519  and  _520
REMARK  225  A    between atoms: _524  and  MN_638
REMARK  226  A    between atoms: _525  and  _527
REMARK  227  A    between atoms: _527  and  _528
REMARK  228  A    between atoms: _531  and  _532
REMARK  229  A    between atoms: _537  and  _539
REMARK  230  A    between atoms: _539  and  _540
REMARK  231  A    between atoms: _539  and  _542
REMARK  232  A    between atoms: _542  and  _543
REMARK  233  A    between atoms: _546  and  _548
REMARK  234  A    between atoms: _548  and  _549
REMARK  235  A    between atoms: _548  and  _551
REMARK  236  A    between atoms: _551  and  _552
REMARK  237  A    between atoms: _555  and  _557
REMARK  238  A    between atoms: _557  and  _558
REMARK  239  A    between atoms: _557  and  _560
REMARK  240  A    between atoms: _563  and  _564
REMARK  241  A    between atoms: _569  and  _571
REMARK  242  A    between atoms: _571  and  _572
REMARK  243  A    between atoms: _571  and  _574
REMARK  244  A    between atoms: _574  and  _575
REMARK  245  A    between atoms: _578  and  _580
REMARK  246  A    between atoms: _580  and  _581
REMARK  247  A    between atoms: _580  and  _583
REMARK  248  A    between atoms: _583  and  _584
REMARK  249  A    between atoms: _584  and  _585
REMARK  250  A    between atoms: _585  and  _586
REMARK  251  A    between atoms: _586  and  _587
REMARK  252  A    between atoms: _591  and  _593
REMARK  253  A    between atoms: _593  and  _594
REMARK  254  A    between atoms: _593  and  _596
REMARK  255  A    between atoms: _596  and  _597
REMARK  256  A    between atoms: _603  and  _605
REMARK  257  A    between atoms: _605  and  _606
REMARK  258  A    between atoms: _609  and  _611
REMARK  259  A    between atoms: _611  and  _612
REMARK  260  A    between atoms: _611  and  _614
REMARK  261  A    between atoms: _614  and  _615
REMARK  262  A    between atoms: _621  and  _623
REMARK  263  A    between atoms: _623  and  _624
REMARK  264  A    between atoms: _623  and  _626
REMARK  265  A    between atoms: _626  and  _627
REMARK  266  A    between atoms: _627  and  _628
REMARK  267  A    between atoms: _628  and  _629
REMARK                            x       y       z     vdW  Elec       q    Type
REMARK                         _______ _______ _______ _____ _____    ______ ____
ROOT
ATOM      1  O   HOH     1      95.077 -15.333  50.661  0.00  0.00    +0.000 OA
ENDROOT
TORSDOF 0
REMARK  Name = ../refined-set-2016/2wqp/2wqp_pocket.pdb
REMARK  267 active torsions:
REMARK  status: ('A' for Active; 'I' for Inactive)
REMARK    1  A    between atoms: _1  and  _3
REMARK    2  A    between atoms: _3  and  _4
REMARK    3  A    between atoms: _3  and  _6
REMARK    4  A    between atoms: _6  and  _7
REMARK    5  A    between atoms: _10  and  _12
REMARK    6  A    between atoms: _12  and  _13
REMARK    7  A    between atoms: _12  and  _15
REMARK    8  A    between atoms: _15  and  _16
REMARK    9  A    between atoms: _16  and  _17
REMARK   10  A    between atoms: _20  and  _22
REMARK   11  A    between atoms: _22  and  _23
REMARK   12  A    between atoms: _22  and  _25
REMARK   13  A    between atoms: _25  and  _26
REMARK   14  A    between atoms: _29  and  _31
REMARK   15  A    between atoms: _31  and  _32
REMARK   16  A    between atoms: _34  and  _36
REMARK   17  A    between atoms: _36  and  _37
REMARK   18  A    between atoms: _36  and  _39
REMARK   19  A    between atoms: _39  and  _40
REMARK   20  A    between atoms: _43  and  _45
REMARK   21  A    between atoms: _45  and  _46
REMARK   22  A    between atoms: _45  and  _48
REMARK   23  A    between atoms: _48  and  _49
REMARK   24  A    between atoms: _54  and  _56
REMARK   25  A    between atoms: _56  and  _57
REMARK   26  A    between atoms: _56  and  _59
REMARK   27  A    between atoms: _59  and  _60
REMARK   28  A    between atoms: _60  and  _61
REMARK   29  A    between atoms: _61  and  _62
REMARK   30  A    between atoms: _62  and  _63
REMARK   31  A    between atoms: _67  and  _69
REMARK   32  A    between atoms: _69  and  _70
REMARK   33  A    between atoms: _69  and  _72
REMARK   34  A    between atoms: _72  and  _73
REMARK   35  A    between atoms: _78  and  _80
REMARK   36  A    between atoms: _80  and  _81
REMARK   37  A    between atoms: _80  and  _83
REMARK   38  A    between atoms: _83  and  _84
REMARK   39  A    between atoms: _84  and  _85
REMARK   40  A    between atoms: _90  and  _92
REMARK   41  A    between atoms: _92  and  _93
REMARK   42  A    between atoms: _92  and  _95
REMARK   43  A    between atoms: _95  and  _96
REMARK   44  A    between atoms: _99  and  _101
REMARK   45  A    between atoms: _101  and  _102
REMARK   46  A    between atoms: _101  and  _104
REMARK   47  A    between atoms: _104  and  _105
REMARK   48  A    between atoms: _110  and  _112
REMARK   49  A    between atoms: _112  and  _113
REMARK   50  A    between atoms: _112  and  _115
REMARK   51  A    between atoms: _115  and  _116
REMARK   52  A    between atoms: _116  and  _117
REMARK   53  A    between atoms: _120  and  _122
REMARK   54  A    between atoms: _122  and  _123
REMARK   55  A    between atoms: _122  and  _125
REMARK   56  A    between atoms: _125  and  _126
REMARK   57  A    between atoms: _130  and  _131
REMARK   58  A    between atoms: _136  and  _138
REMARK   59  A    between atoms: _138  and  _139
REMARK   60  A    between atoms: _141  and  _143
REMARK   61  A    between atoms: _143  and  _144
REMARK   62  A    between atoms: _143  and  _146
REMARK   63  A    between atoms: _146  and  _147
REMARK   64  A    between atoms: _152  and  _154
REMARK   65  A    between atoms: _154  and  _155
REMARK   66  A    between atoms: _158  and  _160
REMARK   67  A    between atoms: _160  and  _161
REMARK   68  A    between atoms: _160  and  _163
REMARK   69  A    between atoms: _166  and  _168
REMARK   70  A    between atoms: _168  and  _169
REMARK   71  A    between atoms: _168  and  _171
REMARK   72  A    between atoms: _171  and  _172
REMARK   73  A    between atoms: _174  and  _176
REMARK   74  A    between atoms: _176  and  _177
REMARK   75  A    between atoms: _176  and  _179
REMARK   76  A    between atoms: _179  and  _180
REMARK   77  A    between atoms: _183  and  _185
REMARK   78  A    between atoms: _185  and  _186
REMARK   79  A    between atoms: _185  and  _188
REMARK   80  A    between atoms: _188  and  _189
REMARK   81  A    between atoms: _192  and  _194
REMARK   82  A    between atoms: _194  and  _195
REMARK   83  A    between atoms: _194  and  _197
REMARK   84  A    between atoms: _197  and  _198
REMARK   85  A    between atoms: _198  and  _199
REMARK   86  A    between atoms: _201  and  _203
REMARK   87  A    between atoms: _203  and  _204
REMARK   88  A    between atoms: _203  and  _206
REMARK   89  A    between atoms: _206  and  _207
REMARK   90  A    between atoms: _207  and  _208
REMARK   91  A    between atoms: _208  and  _209
REMARK   92  A    between atoms: _218  and  _220
REMARK   93  A    between atoms: _220  and  _221
REMARK   94  A    between atoms: _220  and  _223
REMARK   95  A    between atoms: _225  and  _227
REMARK   96  A    between atoms: _227  and  _228
REMARK   97  A    between atoms: _227  and  _230
REMARK   98  A    between atoms: _230  and  _231
REMARK   99  A    between atoms: _233  and  _235
REMARK  100  A    between atoms: _235  and  _236
REMARK  101  A    between atoms: _235  and  _238
REMARK  102  A    between atoms: _238  and  _239
REMARK  103  A    between atoms: _242  and  _244
REMARK  104  A    between atoms: _244  and  _245
REMARK  105  A    between atoms: _244  and  _247
REMARK  106  A    between atoms: _247  and  _248
REMARK  107  A    between atoms: _251  and  _253
REMARK  108  A    between atoms: _253  and  _254
REMARK  109  A    between atoms: _253  and  _256
REMARK  110  A    between atoms: _256  and  _257
REMARK  111  A    between atoms: _263  and  _265
REMARK  112  A    between atoms: _265  and  _266
REMARK  113  A    between atoms: _265  and  _268
REMARK  114  A    between atoms: _268  and  _269
REMARK  115  A    between atoms: _269  and  _270
REMARK  116  A    between atoms: _270  and  _271
REMARK  117  A    between atoms: _271  and  _272
REMARK  118  A    between atoms: _276  and  _278
REMARK  119  A    between atoms: _278  and  _279
REMARK  120  A    between atoms: _278  and  _281
REMARK  121  A    between atoms: _281  and  _282
REMARK  122  A    between atoms: _285  and  _287
REMARK  123  A    between atoms: _287  and  _288
REMARK  124  A    between atoms: _290  and  _292
REMARK  125  A    between atoms: _292  and  _293
REMARK  126  A    between atoms: _292  and  _295
REMARK  127  A    between atoms: _295  and  _296
REMARK  128  A    between atoms: _298  and  _300
REMARK  129  A    between atoms: _300  and  _301
REMARK  130  A    between atoms: _303  and  _305
REMARK  131  A    between atoms: _305  and  _306
REMARK  132  A    between atoms: _305  and  _308
REMARK  133  A    between atoms: _308  and  _309
REMARK  134  A    between atoms: _309  and  _310
REMARK  135  A    between atoms: _313  and  _315
REMARK  136  A    between atoms: _315  and  _316
REMARK  137  A    between atoms: _315  and  _318
REMARK  138  A    between atoms: _320  and  _322
REMARK  139  A    between atoms: _322  and  _323
REMARK  140  A    between atoms: _322  and  _325
REMARK  141  A    between atoms: _325  and  _326
REMARK  142  A    between atoms: _329  and  _331
REMARK  143  A    between atoms: _331  and  _332
REMARK  144  A    between atoms: _331  and  _334
REMARK  145  A    between atoms: _334  and  _335
REMARK  146  A    between atoms: _338  and  _340
REMARK  147  A    between atoms: _340  and  _341
REMARK  148  A    between atoms: _340  and  _343
REMARK  149  A    between atoms: _343  and  _344
REMARK  150  A    between atoms: _346  and  _348
REMARK  151  A    between atoms: _348  and  _349
REMARK  152  A    between atoms: _348  and  _351
REMARK  153  A    between atoms: _351  and  _352
REMARK  154  A    between atoms: _355  and  _357
REMARK  155  A    between atoms: _357  and  _358
REMARK  156  A    between atoms: _360  and  _362
REMARK  157  A    between atoms: _362  and  _363
REMARK  158  A    between atoms: _362  and  _365
REMARK  159  A    between atoms: _365  and  _366
REMARK  160  A    between atoms: _366  and  _367
REMARK  161  A    between atoms: _369  and  _371
REMARK  162  A    between atoms: _371  and  _372
REMARK  163  A    between atoms: _371  and  _374
REMARK  164  A    between atoms: _374  and  _375
REMARK  165  A    between atoms: _380  and  _382
REMARK  166  A    between atoms: _382  and  _383
REMARK  167  A    between atoms: _382  and  _385
REMARK  168  A    between atoms: _385  and  _386
REMARK  169  A    between atoms: _389  and  _391
REMARK  170  A    between atoms: _391  and  _392
REMARK  171  A    between atoms: _391  and  _394
REMARK  172  A    between atoms: _394  and  _395
REMARK  173  A    between atoms: _400  and  _402
REMARK  174  A    between atoms: _402  and  _403
REMARK  175  A    between atoms: _402  and  _405
REMARK  176  A    between atoms: _407  and  _409
REMARK  177  A    between atoms: _409  and  _410
REMARK  178  A    between atoms: _409  and  _412
REMARK  179  A    between atoms: _412  and  _413
REMARK  180  A    between atoms: _416  and  _418
REMARK  181  A    between atoms: _418  and  _419
REMARK  182  A    between atoms: _418  and  _421
REMARK  183  A    between atoms: _421  and  _422
REMARK  184  A    between atoms: _427  and  _429
REMARK  185  A    between atoms: _429  and  _430
REMARK  186  A    between atoms: _429  and  _432
REMARK  187  A    between atoms: _432  and  _433
REMARK  188  A    between atoms: _436  and  _438
REMARK  189  A    between atoms: _438  and  _439
REMARK  190  A    between atoms: _438  and  _441
REMARK  191  A    between atoms: _441  and  _442
REMARK  192  A    between atoms: _447  and  _448
REMARK  193  A    between atoms: _450  and  _452
REMARK  194  A    between atoms: _452  and  _453
REMARK  195  A    between atoms: _452  and  _455
REMARK  196  A    between atoms: _455  and  _456
REMARK  197  A    between atoms: _459  and  _461
REMARK  198  A    between atoms: _461  and  _462
REMARK  199  A    between atoms: _461  and  _464
REMARK  200  A    between atoms: _464  and  _465
REMARK  201  A    between atoms: _467  and  _469
REMARK  202  A    between atoms: _469  and  _470
REMARK  203  A    between atoms: _469  and  _472
REMARK  204  A    between atoms: _472  and  _473
REMARK  205  A    between atoms: _476  and  _478
REMARK  206  A    between atoms: _478  and  _479
REMARK  207  A    between atoms: _478  and  _481
REMARK  208  A    between atoms: _481  and  _482
REMARK  209  A    between atoms: _486  and  MN_638
REMARK  210  A    between atoms: _487  and  _489
REMARK  211  A    between atoms: _489  and  _490
REMARK  212  A    between atoms: _489  and  _492
REMARK  213  A    between atoms: _492  and  _493
REMARK  214  A    between atoms: _493  and  _494
REMARK  215  A    between atoms: _497  and  _499
REMARK  216  A    between atoms: _499  and  _500
REMARK  217  A    between atoms: _499  and  _502
REMARK  218  A    between atoms: _502  and  _503
REMARK  219  A    between atoms: _503  and  _504
REMARK  220  A    between atoms: _504  and  _505
REMARK  221  A    between atoms: _514  and  _516
REMARK  222  A    between atoms: _516  and  _517
REMARK  223  A    between atoms: _516  and  _519
REMARK  224  A    between atoms: _519  and  _520
REMARK  225  A    between atoms: _524  and  MN_638
REMARK  226  A    between atoms: _525  and  _527
REMARK  227  A    between atoms: _527  and  _528
REMARK  228  A    between atoms: _531  and  _532
REMARK  229  A    between atoms: _537  and  _539
REMARK  230  A    between atoms: _539  and  _540
REMARK  231  A    between atoms: _539  and  _542
REMARK  232  A    between atoms: _542  and  _543
REMARK  233  A    between atoms: _546  and  _548
REMARK  234  A    between atoms: _548  and  _549
REMARK  235  A    between atoms: _548  and  _551
REMARK  236  A    between atoms: _551  and  _552
REMARK  237  A    between atoms: _555  and  _557
REMARK  238  A    between atoms: _557  and  _558
REMARK  239  A    between atoms: _557  and  _560
REMARK  240  A    between atoms: _563  and  _564
REMARK  241  A    between atoms: _569  and  _571
REMARK  242  A    between atoms: _571  and  _572
REMARK  243  A    between atoms: _571  and  _574
REMARK  244  A    between atoms: _574  and  _575
REMARK  245  A    between atoms: _578  and  _580
REMARK  246  A    between atoms: _580  and  _581
REMARK  247  A    between atoms: _580  and  _583
REMARK  248  A    between atoms: _583  and  _584
REMARK  249  A    between atoms: _584  and  _585
REMARK  250  A    between atoms: _585  and  _586
REMARK  251  A    between atoms: _586  and  _587
REMARK  252  A    between atoms: _591  and  _593
REMARK  253  A    between atoms: _593  and  _594
REMARK  254  A    between atoms: _593  and  _596
REMARK  255  A    between atoms: _596  and  _597
REMARK  256  A    between atoms: _603  and  _605
REMARK  257  A    between atoms: _605  and  _606
REMARK  258  A    between atoms: _609  and  _611
REMARK  259  A    between atoms: _611  and  _612
REMARK  260  A    between atoms: _611  and  _614
REMARK  261  A    between atoms: _614  and  _615
REMARK  262  A    between atoms: _621  and  _623
REMARK  263  A    between atoms: _623  and  _624
REMARK  264  A    between atoms: _623  and  _626
REMARK  265  A    between atoms: _626  and  _627
REMARK  266  A    between atoms: _627  and  _628
REMARK  267  A    between atoms: _628  and  _629
REMARK                            x       y       z     vdW  Elec       q    Type
REMARK                         _______ _______ _______ _____ _____    ______ ____
ROOT
ATOM      1  O   HOH     1      88.888 -15.172  52.800  0.00  0.00    +0.000 OA
ENDROOT
TORSDOF 0
REMARK  Name = ../refined-set-2016/2wqp/2wqp_pocket.pdb
REMARK  267 active torsions:
REMARK  status: ('A' for Active; 'I' for Inactive)
REMARK    1  A    between atoms: _1  and  _3
REMARK    2  A    between atoms: _3  and  _4
REMARK    3  A    between atoms: _3  and  _6
REMARK    4  A    between atoms: _6  and  _7
REMARK    5  A    between atoms: _10  and  _12
REMARK    6  A    between atoms: _12  and  _13
REMARK    7  A    between atoms: _12  and  _15
REMARK    8  A    between atoms: _15  and  _16
REMARK    9  A    between atoms: _16  and  _17
REMARK   10  A    between atoms: _20  and  _22
REMARK   11  A    between atoms: _22  and  _23
REMARK   12  A    between atoms: _22  and  _25
REMARK   13  A    between atoms: _25  and  _26
REMARK   14  A    between atoms: _29  and  _31
REMARK   15  A    between atoms: _31  and  _32
REMARK   16  A    between atoms: _34  and  _36
REMARK   17  A    between atoms: _36  and  _37
REMARK   18  A    between atoms: _36  and  _39
REMARK   19  A    between atoms: _39  and  _40
REMARK   20  A    between atoms: _43  and  _45
REMARK   21  A    between atoms: _45  and  _46
REMARK   22  A    between atoms: _45  and  _48
REMARK   23  A    between atoms: _48  and  _49
REMARK   24  A    between atoms: _54  and  _56
REMARK   25  A    between atoms: _56  and  _57
REMARK   26  A    between atoms: _56  and  _59
REMARK   27  A    between atoms: _59  and  _60
REMARK   28  A    between atoms: _60  and  _61
REMARK   29  A    between atoms: _61  and  _62
REMARK   30  A    between atoms: _62  and  _63
REMARK   31  A    between atoms: _67  and  _69
REMARK   32  A    between atoms: _69  and  _70
REMARK   33  A    between atoms: _69  and  _72
REMARK   34  A    between atoms: _72  and  _73
REMARK   35  A    between atoms: _78  and  _80
REMARK   36  A    between atoms: _80  and  _81
REMARK   37  A    between atoms: _80  and  _83
REMARK   38  A    between atoms: _83  and  _84
REMARK   39  A    between atoms: _84  and  _85
REMARK   40  A    between atoms: _90  and  _92
REMARK   41  A    between atoms: _92  and  _93
REMARK   42  A    between atoms: _92  and  _95
REMARK   43  A    between atoms: _95  and  _96
REMARK   44  A    between atoms: _99  and  _101
REMARK   45  A    between atoms: _101  and  _102
REMARK   46  A    between atoms: _101  and  _104
REMARK   47  A    between atoms: _104  and  _105
REMARK   48  A    between atoms: _110  and  _112
REMARK   49  A    between atoms: _112  and  _113
REMARK   50  A    between atoms: _112  and  _115
REMARK   51  A    between atoms: _115  and  _116
REMARK   52  A    between atoms: _116  and  _117
REMARK   53  A    between atoms: _120  and  _122
REMARK   54  A    between atoms: _122  and  _123
REMARK   55  A    between atoms: _122  and  _125
REMARK   56  A    between atoms: _125  and  _126
REMARK   57  A    between atoms: _130  and  _131
REMARK   58  A    between atoms: _136  and  _138
REMARK   59  A    between atoms: _138  and  _139
REMARK   60  A    between atoms: _141  and  _143
REMARK   61  A    between atoms: _143  and  _144
REMARK   62  A    between atoms: _143  and  _146
REMARK   63  A    between atoms: _146  and  _147
REMARK   64  A    between atoms: _152  and  _154
REMARK   65  A    between atoms: _154  and  _155
REMARK   66  A    between atoms: _158  and  _160
REMARK   67  A    between atoms: _160  and  _161
REMARK   68  A    between atoms: _160  and  _163
REMARK   69  A    between atoms: _166  and  _168
REMARK   70  A    between atoms: _168  and  _169
REMARK   71  A    between atoms: _168  and  _171
REMARK   72  A    between atoms: _171  and  _172
REMARK   73  A    between atoms: _174  and  _176
REMARK   74  A    between atoms: _176  and  _177
REMARK   75  A    between atoms: _176  and  _179
REMARK   76  A    between atoms: _179  and  _180
REMARK   77  A    between atoms: _183  and  _185
REMARK   78  A    between atoms: _185  and  _186
REMARK   79  A    between atoms: _185  and  _188
REMARK   80  A    between atoms: _188  and  _189
REMARK   81  A    between atoms: _192  and  _194
REMARK   82  A    between atoms: _194  and  _195
REMARK   83  A    between atoms: _194  and  _197
REMARK   84  A    between atoms: _197  and  _198
REMARK   85  A    between atoms: _198  and  _199
REMARK   86  A    between atoms: _201  and  _203
REMARK   87  A    between atoms: _203  and  _204
REMARK   88  A    between atoms: _203  and  _206
REMARK   89  A    between atoms: _206  and  _207
REMARK   90  A    between atoms: _207  and  _208
REMARK   91  A    between atoms: _208  and  _209
REMARK   92  A    between atoms: _218  and  _220
REMARK   93  A    between atoms: _220  and  _221
REMARK   94  A    between atoms: _220  and  _223
REMARK   95  A    between atoms: _225  and  _227
REMARK   96  A    between atoms: _227  and  _228
REMARK   97  A    between atoms: _227  and  _230
REMARK   98  A    between atoms: _230  and  _231
REMARK   99  A    between atoms: _233  and  _235
REMARK  100  A    between atoms: _235  and  _236
REMARK  101  A    between atoms: _235  and  _238
REMARK  102  A    between atoms: _238  and  _239
REMARK  103  A    between atoms: _242  and  _244
REMARK  104  A    between atoms: _244  and  _245
REMARK  105  A    between atoms: _244  and  _247
REMARK  106  A    between atoms: _247  and  _248
REMARK  107  A    between atoms: _251  and  _253
REMARK  108  A    between atoms: _253  and  _254
REMARK  109  A    between atoms: _253  and  _256
REMARK  110  A    between atoms: _256  and  _257
REMARK  111  A    between atoms: _263  and  _265
REMARK  112  A    between atoms: _265  and  _266
REMARK  113  A    between atoms: _265  and  _268
REMARK  114  A    between atoms: _268  and  _269
REMARK  115  A    between atoms: _269  and  _270
REMARK  116  A    between atoms: _270  and  _271
REMARK  117  A    between atoms: _271  and  _272
REMARK  118  A    between atoms: _276  and  _278
REMARK  119  A    between atoms: _278  and  _279
REMARK  120  A    between atoms: _278  and  _281
REMARK  121  A    between atoms: _281  and  _282
REMARK  122  A    between atoms: _285  and  _287
REMARK  123  A    between atoms: _287  and  _288
REMARK  124  A    between atoms: _290  and  _292
REMARK  125  A    between atoms: _292  and  _293
REMARK  126  A    between atoms: _292  and  _295
REMARK  127  A    between atoms: _295  and  _296
REMARK  128  A    between atoms: _298  and  _300
REMARK  129  A    between atoms: _300  and  _301
REMARK  130  A    between atoms: _303  and  _305
REMARK  131  A    between atoms: _305  and  _306
REMARK  132  A    between atoms: _305  and  _308
REMARK  133  A    between atoms: _308  and  _309
REMARK  134  A    between atoms: _309  and  _310
REMARK  135  A    between atoms: _313  and  _315
REMARK  136  A    between atoms: _315  and  _316
REMARK  137  A    between atoms: _315  and  _318
REMARK  138  A    between atoms: _320  and  _322
REMARK  139  A    between atoms: _322  and  _323
REMARK  140  A    between atoms: _322  and  _325
REMARK  141  A    between atoms: _325  and  _326
REMARK  142  A    between atoms: _329  and  _331
REMARK  143  A    between atoms: _331  and  _332
REMARK  144  A    between atoms: _331  and  _334
REMARK  145  A    between atoms: _334  and  _335
REMARK  146  A    between atoms: _338  and  _340
REMARK  147  A    between atoms: _340  and  _341
REMARK  148  A    between atoms: _340  and  _343
REMARK  149  A    between atoms: _343  and  _344
REMARK  150  A    between atoms: _346  and  _348
REMARK  151  A    between atoms: _348  and  _349
REMARK  152  A    between atoms: _348  and  _351
REMARK  153  A    between atoms: _351  and  _352
REMARK  154  A    between atoms: _355  and  _357
REMARK  155  A    between atoms: _357  and  _358
REMARK  156  A    between atoms: _360  and  _362
REMARK  157  A    between atoms: _362  and  _363
REMARK  158  A    between atoms: _362  and  _365
REMARK  159  A    between atoms: _365  and  _366
REMARK  160  A    between atoms: _366  and  _367
REMARK  161  A    between atoms: _369  and  _371
REMARK  162  A    between atoms: _371  and  _372
REMARK  163  A    between atoms: _371  and  _374
REMARK  164  A    between atoms: _374  and  _375
REMARK  165  A    between atoms: _380  and  _382
REMARK  166  A    between atoms: _382  and  _383
REMARK  167  A    between atoms: _382  and  _385
REMARK  168  A    between atoms: _385  and  _386
REMARK  169  A    between atoms: _389  and  _391
REMARK  170  A    between atoms: _391  and  _392
REMARK  171  A    between atoms: _391  and  _394
REMARK  172  A    between atoms: _394  and  _395
REMARK  173  A    between atoms: _400  and  _402
REMARK  174  A    between atoms: _402  and  _403
REMARK  175  A    between atoms: _402  and  _405
REMARK  176  A    between atoms: _407  and  _409
REMARK  177  A    between atoms: _409  and  _410
REMARK  178  A    between atoms: _409  and  _412
REMARK  179  A    between atoms: _412  and  _413
REMARK  180  A    between atoms: _416  and  _418
REMARK  181  A    between atoms: _418  and  _419
REMARK  182  A    between atoms: _418  and  _421
REMARK  183  A    between atoms: _421  and  _422
REMARK  184  A    between atoms: _427  and  _429
REMARK  185  A    between atoms: _429  and  _430
REMARK  186  A    between atoms: _429  and  _432
REMARK  187  A    between atoms: _432  and  _433
REMARK  188  A    between atoms: _436  and  _438
REMARK  189  A    between atoms: _438  and  _439
REMARK  190  A    between atoms: _438  and  _441
REMARK  191  A    between atoms: _441  and  _442
REMARK  192  A    between atoms: _447  and  _448
REMARK  193  A    between atoms: _450  and  _452
REMARK  194  A    between atoms: _452  and  _453
REMARK  195  A    between atoms: _452  and  _455
REMARK  196  A    between atoms: _455  and  _456
REMARK  197  A    between atoms: _459  and  _461
REMARK  198  A    between atoms: _461  and  _462
REMARK  199  A    between atoms: _461  and  _464
REMARK  200  A    between atoms: _464  and  _465
REMARK  201  A    between atoms: _467  and  _469
REMARK  202  A    between atoms: _469  and  _470
REMARK  203  A    between atoms: _469  and  _472
REMARK  204  A    between atoms: _472  and  _473
REMARK  205  A    between atoms: _476  and  _478
REMARK  206  A    between atoms: _478  and  _479
REMARK  207  A    between atoms: _478  and  _481
REMARK  208  A    between atoms: _481  and  _482
REMARK  209  A    between atoms: _486  and  MN_638
REMARK  210  A    between atoms: _487  and  _489
REMARK  211  A    between atoms: _489  and  _490
REMARK  212  A    between atoms: _489  and  _492
REMARK  213  A    between atoms: _492  and  _493
REMARK  214  A    between atoms: _493  and  _494
REMARK  215  A    between atoms: _497  and  _499
REMARK  216  A    between atoms: _499  and  _500
REMARK  217  A    between atoms: _499  and  _502
REMARK  218  A    between atoms: _502  and  _503
REMARK  219  A    between atoms: _503  and  _504
REMARK  220  A    between atoms: _504  and  _505
REMARK  221  A    between atoms: _514  and  _516
REMARK  222  A    between atoms: _516  and  _517
REMARK  223  A    between atoms: _516  and  _519
REMARK  224  A    between atoms: _519  and  _520
REMARK  225  A    between atoms: _524  and  MN_638
REMARK  226  A    between atoms: _525  and  _527
REMARK  227  A    between atoms: _527  and  _528
REMARK  228  A    between atoms: _531  and  _532
REMARK  229  A    between atoms: _537  and  _539
REMARK  230  A    between atoms: _539  and  _540
REMARK  231  A    between atoms: _539  and  _542
REMARK  232  A    between atoms: _542  and  _543
REMARK  233  A    between atoms: _546  and  _548
REMARK  234  A    between atoms: _548  and  _549
REMARK  235  A    between atoms: _548  and  _551
REMARK  236  A    between atoms: _551  and  _552
REMARK  237  A    between atoms: _555  and  _557
REMARK  238  A    between atoms: _557  and  _558
REMARK  239  A    between atoms: _557  and  _560
REMARK  240  A    between atoms: _563  and  _564
REMARK  241  A    between atoms: _569  and  _571
REMARK  242  A    between atoms: _571  and  _572
REMARK  243  A    between atoms: _571  and  _574
REMARK  244  A    between atoms: _574  and  _575
REMARK  245  A    between atoms: _578  and  _580
REMARK  246  A    between atoms: _580  and  _581
REMARK  247  A    between atoms: _580  and  _583
REMARK  248  A    between atoms: _583  and  _584
REMARK  249  A    between atoms: _584  and  _585
REMARK  250  A    between atoms: _585  and  _586
REMARK  251  A    between atoms: _586  and  _587
REMARK  252  A    between atoms: _591  and  _593
REMARK  253  A    between atoms: _593  and  _594
REMARK  254  A    between atoms: _593  and  _596
REMARK  255  A    between atoms: _596  and  _597
REMARK  256  A    between atoms: _603  and  _605
REMARK  257  A    between atoms: _605  and  _606
REMARK  258  A    between atoms: _609  and  _611
REMARK  259  A    between atoms: _611  and  _612
REMARK  260  A    between atoms: _611  and  _614
REMARK  261  A    between atoms: _614  and  _615
REMARK  262  A    between atoms: _621  and  _623
REMARK  263  A    between atoms: _623  and  _624
REMARK  264  A    between atoms: _623  and  _626
REMARK  265  A    between atoms: _626  and  _627
REMARK  266  A    between atoms: _627  and  _628
REMARK  267  A    between atoms: _628  and  _629
REMARK                            x       y       z     vdW  Elec       q    Type
REMARK                         _______ _______ _______ _____ _____    ______ ____
ROOT
ATOM      1  O   HOH     1      92.960 -17.421  47.462  0.00  0.00    +0.000 OA
ENDROOT
TORSDOF 0
REMARK  Name = ../refined-set-2016/2wqp/2wqp_pocket.pdb
REMARK  267 active torsions:
REMARK  status: ('A' for Active; 'I' for Inactive)
REMARK    1  A    between atoms: _1  and  _3
REMARK    2  A    between atoms: _3  and  _4
REMARK    3  A    between atoms: _3  and  _6
REMARK    4  A    between atoms: _6  and  _7
REMARK    5  A    between atoms: _10  and  _12
REMARK    6  A    between atoms: _12  and  _13
REMARK    7  A    between atoms: _12  and  _15
REMARK    8  A    between atoms: _15  and  _16
REMARK    9  A    between atoms: _16  and  _17
REMARK   10  A    between atoms: _20  and  _22
REMARK   11  A    between atoms: _22  and  _23
REMARK   12  A    between atoms: _22  and  _25
REMARK   13  A    between atoms: _25  and  _26
REMARK   14  A    between atoms: _29  and  _31
REMARK   15  A    between atoms: _31  and  _32
REMARK   16  A    between atoms: _34  and  _36
REMARK   17  A    between atoms: _36  and  _37
REMARK   18  A    between atoms: _36  and  _39
REMARK   19  A    between atoms: _39  and  _40
REMARK   20  A    between atoms: _43  and  _45
REMARK   21  A    between atoms: _45  and  _46
REMARK   22  A    between atoms: _45  and  _48
REMARK   23  A    between atoms: _48  and  _49
REMARK   24  A    between atoms: _54  and  _56
REMARK   25  A    between atoms: _56  and  _57
REMARK   26  A    between atoms: _56  and  _59
REMARK   27  A    between atoms: _59  and  _60
REMARK   28  A    between atoms: _60  and  _61
REMARK   29  A    between atoms: _61  and  _62
REMARK   30  A    between atoms: _62  and  _63
REMARK   31  A    between atoms: _67  and  _69
REMARK   32  A    between atoms: _69  and  _70
REMARK   33  A    between atoms: _69  and  _72
REMARK   34  A    between atoms: _72  and  _73
REMARK   35  A    between atoms: _78  and  _80
REMARK   36  A    between atoms: _80  and  _81
REMARK   37  A    between atoms: _80  and  _83
REMARK   38  A    between atoms: _83  and  _84
REMARK   39  A    between atoms: _84  and  _85
REMARK   40  A    between atoms: _90  and  _92
REMARK   41  A    between atoms: _92  and  _93
REMARK   42  A    between atoms: _92  and  _95
REMARK   43  A    between atoms: _95  and  _96
REMARK   44  A    between atoms: _99  and  _101
REMARK   45  A    between atoms: _101  and  _102
REMARK   46  A    between atoms: _101  and  _104
REMARK   47  A    between atoms: _104  and  _105
REMARK   48  A    between atoms: _110  and  _112
REMARK   49  A    between atoms: _112  and  _113
REMARK   50  A    between atoms: _112  and  _115
REMARK   51  A    between atoms: _115  and  _116
REMARK   52  A    between atoms: _116  and  _117
REMARK   53  A    between atoms: _120  and  _122
REMARK   54  A    between atoms: _122  and  _123
REMARK   55  A    between atoms: _122  and  _125
REMARK   56  A    between atoms: _125  and  _126
REMARK   57  A    between atoms: _130  and  _131
REMARK   58  A    between atoms: _136  and  _138
REMARK   59  A    between atoms: _138  and  _139
REMARK   60  A    between atoms: _141  and  _143
REMARK   61  A    between atoms: _143  and  _144
REMARK   62  A    between atoms: _143  and  _146
REMARK   63  A    between atoms: _146  and  _147
REMARK   64  A    between atoms: _152  and  _154
REMARK   65  A    between atoms: _154  and  _155
REMARK   66  A    between atoms: _158  and  _160
REMARK   67  A    between atoms: _160  and  _161
REMARK   68  A    between atoms: _160  and  _163
REMARK   69  A    between atoms: _166  and  _168
REMARK   70  A    between atoms: _168  and  _169
REMARK   71  A    between atoms: _168  and  _171
REMARK   72  A    between atoms: _171  and  _172
REMARK   73  A    between atoms: _174  and  _176
REMARK   74  A    between atoms: _176  and  _177
REMARK   75  A    between atoms: _176  and  _179
REMARK   76  A    between atoms: _179  and  _180
REMARK   77  A    between atoms: _183  and  _185
REMARK   78  A    between atoms: _185  and  _186
REMARK   79  A    between atoms: _185  and  _188
REMARK   80  A    between atoms: _188  and  _189
REMARK   81  A    between atoms: _192  and  _194
REMARK   82  A    between atoms: _194  and  _195
REMARK   83  A    between atoms: _194  and  _197
REMARK   84  A    between atoms: _197  and  _198
REMARK   85  A    between atoms: _198  and  _199
REMARK   86  A    between atoms: _201  and  _203
REMARK   87  A    between atoms: _203  and  _204
REMARK   88  A    between atoms: _203  and  _206
REMARK   89  A    between atoms: _206  and  _207
REMARK   90  A    between atoms: _207  and  _208
REMARK   91  A    between atoms: _208  and  _209
REMARK   92  A    between atoms: _218  and  _220
REMARK   93  A    between atoms: _220  and  _221
REMARK   94  A    between atoms: _220  and  _223
REMARK   95  A    between atoms: _225  and  _227
REMARK   96  A    between atoms: _227  and  _228
REMARK   97  A    between atoms: _227  and  _230
REMARK   98  A    between atoms: _230  and  _231
REMARK   99  A    between atoms: _233  and  _235
REMARK  100  A    between atoms: _235  and  _236
REMARK  101  A    between atoms: _235  and  _238
REMARK  102  A    between atoms: _238  and  _239
REMARK  103  A    between atoms: _242  and  _244
REMARK  104  A    between atoms: _244  and  _245
REMARK  105  A    between atoms: _244  and  _247
REMARK  106  A    between atoms: _247  and  _248
REMARK  107  A    between atoms: _251  and  _253
REMARK  108  A    between atoms: _253  and  _254
REMARK  109  A    between atoms: _253  and  _256
REMARK  110  A    between atoms: _256  and  _257
REMARK  111  A    between atoms: _263  and  _265
REMARK  112  A    between atoms: _265  and  _266
REMARK  113  A    between atoms: _265  and  _268
REMARK  114  A    between atoms: _268  and  _269
REMARK  115  A    between atoms: _269  and  _270
REMARK  116  A    between atoms: _270  and  _271
REMARK  117  A    between atoms: _271  and  _272
REMARK  118  A    between atoms: _276  and  _278
REMARK  119  A    between atoms: _278  and  _279
REMARK  120  A    between atoms: _278  and  _281
REMARK  121  A    between atoms: _281  and  _282
REMARK  122  A    between atoms: _285  and  _287
REMARK  123  A    between atoms: _287  and  _288
REMARK  124  A    between atoms: _290  and  _292
REMARK  125  A    between atoms: _292  and  _293
REMARK  126  A    between atoms: _292  and  _295
REMARK  127  A    between atoms: _295  and  _296
REMARK  128  A    between atoms: _298  and  _300
REMARK  129  A    between atoms: _300  and  _301
REMARK  130  A    between atoms: _303  and  _305
REMARK  131  A    between atoms: _305  and  _306
REMARK  132  A    between atoms: _305  and  _308
REMARK  133  A    between atoms: _308  and  _309
REMARK  134  A    between atoms: _309  and  _310
REMARK  135  A    between atoms: _313  and  _315
REMARK  136  A    between atoms: _315  and  _316
REMARK  137  A    between atoms: _315  and  _318
REMARK  138  A    between atoms: _320  and  _322
REMARK  139  A    between atoms: _322  and  _323
REMARK  140  A    between atoms: _322  and  _325
REMARK  141  A    between atoms: _325  and  _326
REMARK  142  A    between atoms: _329  and  _331
REMARK  143  A    between atoms: _331  and  _332
REMARK  144  A    between atoms: _331  and  _334
REMARK  145  A    between atoms: _334  and  _335
REMARK  146  A    between atoms: _338  and  _340
REMARK  147  A    between atoms: _340  and  _341
REMARK  148  A    between atoms: _340  and  _343
REMARK  149  A    between atoms: _343  and  _344
REMARK  150  A    between atoms: _346  and  _348
REMARK  151  A    between atoms: _348  and  _349
REMARK  152  A    between atoms: _348  and  _351
REMARK  153  A    between atoms: _351  and  _352
REMARK  154  A    between atoms: _355  and  _357
REMARK  155  A    between atoms: _357  and  _358
REMARK  156  A    between atoms: _360  and  _362
REMARK  157  A    between atoms: _362  and  _363
REMARK  158  A    between atoms: _362  and  _365
REMARK  159  A    between atoms: _365  and  _366
REMARK  160  A    between atoms: _366  and  _367
REMARK  161  A    between atoms: _369  and  _371
REMARK  162  A    between atoms: _371  and  _372
REMARK  163  A    between atoms: _371  and  _374
REMARK  164  A    between atoms: _374  and  _375
REMARK  165  A    between atoms: _380  and  _382
REMARK  166  A    between atoms: _382  and  _383
REMARK  167  A    between atoms: _382  and  _385
REMARK  168  A    between atoms: _385  and  _386
REMARK  169  A    between atoms: _389  and  _391
REMARK  170  A    between atoms: _391  and  _392
REMARK  171  A    between atoms: _391  and  _394
REMARK  172  A    between atoms: _394  and  _395
REMARK  173  A    between atoms: _400  and  _402
REMARK  174  A    between atoms: _402  and  _403
REMARK  175  A    between atoms: _402  and  _405
REMARK  176  A    between atoms: _407  and  _409
REMARK  177  A    between atoms: _409  and  _410
REMARK  178  A    between atoms: _409  and  _412
REMARK  179  A    between atoms: _412  and  _413
REMARK  180  A    between atoms: _416  and  _418
REMARK  181  A    between atoms: _418  and  _419
REMARK  182  A    between atoms: _418  and  _421
REMARK  183  A    between atoms: _421  and  _422
REMARK  184  A    between atoms: _427  and  _429
REMARK  185  A    between atoms: _429  and  _430
REMARK  186  A    between atoms: _429  and  _432
REMARK  187  A    between atoms: _432  and  _433
REMARK  188  A    between atoms: _436  and  _438
REMARK  189  A    between atoms: _438  and  _439
REMARK  190  A    between atoms: _438  and  _441
REMARK  191  A    between atoms: _441  and  _442
REMARK  192  A    between atoms: _447  and  _448
REMARK  193  A    between atoms: _450  and  _452
REMARK  194  A    between atoms: _452  and  _453
REMARK  195  A    between atoms: _452  and  _455
REMARK  196  A    between atoms: _455  and  _456
REMARK  197  A    between atoms: _459  and  _461
REMARK  198  A    between atoms: _461  and  _462
REMARK  199  A    between atoms: _461  and  _464
REMARK  200  A    between atoms: _464  and  _465
REMARK  201  A    between atoms: _467  and  _469
REMARK  202  A    between atoms: _469  and  _470
REMARK  203  A    between atoms: _469  and  _472
REMARK  204  A    between atoms: _472  and  _473
REMARK  205  A    between atoms: _476  and  _478
REMARK  206  A    between atoms: _478  and  _479
REMARK  207  A    between atoms: _478  and  _481
REMARK  208  A    between atoms: _481  and  _482
REMARK  209  A    between atoms: _486  and  MN_638
REMARK  210  A    between atoms: _487  and  _489
REMARK  211  A    between atoms: _489  and  _490
REMARK  212  A    between atoms: _489  and  _492
REMARK  213  A    between atoms: _492  and  _493
REMARK  214  A    between atoms: _493  and  _494
REMARK  215  A    between atoms: _497  and  _499
REMARK  216  A    between atoms: _499  and  _500
REMARK  217  A    between atoms: _499  and  _502
REMARK  218  A    between atoms: _502  and  _503
REMARK  219  A    between atoms: _503  and  _504
REMARK  220  A    between atoms: _504  and  _505
REMARK  221  A    between atoms: _514  and  _516
REMARK  222  A    between atoms: _516  and  _517
REMARK  223  A    between atoms: _516  and  _519
REMARK  224  A    between atoms: _519  and  _520
REMARK  225  A    between atoms: _524  and  MN_638
REMARK  226  A    between atoms: _525  and  _527
REMARK  227  A    between atoms: _527  and  _528
REMARK  228  A    between atoms: _531  and  _532
REMARK  229  A    between atoms: _537  and  _539
REMARK  230  A    between atoms: _539  and  _540
REMARK  231  A    between atoms: _539  and  _542
REMARK  232  A    between atoms: _542  and  _543
REMARK  233  A    between atoms: _546  and  _548
REMARK  234  A    between atoms: _548  and  _549
REMARK  235  A    between atoms: _548  and  _551
REMARK  236  A    between atoms: _551  and  _552
REMARK  237  A    between atoms: _555  and  _557
REMARK  238  A    between atoms: _557  and  _558
REMARK  239  A    between atoms: _557  and  _560
REMARK  240  A    between atoms: _563  and  _564
REMARK  241  A    between atoms: _569  and  _571
REMARK  242  A    between atoms: _571  and  _572
REMARK  243  A    between atoms: _571  and  _574
REMARK  244  A    between atoms: _574  and  _575
REMARK  245  A    between atoms: _578  and  _580
REMARK  246  A    between atoms: _580  and  _581
REMARK  247  A    between atoms: _580  and  _583
REMARK  248  A    between atoms: _583  and  _584
REMARK  249  A    between atoms: _584  and  _585
REMARK  250  A    between atoms: _585  and  _586
REMARK  251  A    between atoms: _586  and  _587
REMARK  252  A    between atoms: _591  and  _593
REMARK  253  A    between atoms: _593  and  _594
REMARK  254  A    between atoms: _593  and  _596
REMARK  255  A    between atoms: _596  and  _597
REMARK  256  A    between atoms: _603  and  _605
REMARK  257  A    between atoms: _605  and  _606
REMARK  258  A    between atoms: _609  and  _611
REMARK  259  A    between atoms: _611  and  _612
REMARK  260  A    between atoms: _611  and  _614
REMARK  261  A    between atoms: _614  and  _615
REMARK  262  A    between atoms: _621  and  _623
REMARK  263  A    between atoms: _623  and  _624
REMARK  264  A    between atoms: _623  and  _626
REMARK  265  A    between atoms: _626  and  _627
REMARK  266  A    between atoms: _627  and  _628
REMARK  267  A    between atoms: _628  and  _629
REMARK                            x       y       z     vdW  Elec       q    Type
REMARK                         _______ _______ _______ _____ _____    ______ ____
ROOT
ATOM      1  O   HOH     1      88.400 -23.433  42.423  0.00  0.00    +0.000 OA
ENDROOT
TORSDOF 0
REMARK  Name = ../refined-set-2016/2wqp/2wqp_pocket.pdb
REMARK  267 active torsions:
REMARK  status: ('A' for Active; 'I' for Inactive)
REMARK    1  A    between atoms: _1  and  _3
REMARK    2  A    between atoms: _3  and  _4
REMARK    3  A    between atoms: _3  and  _6
REMARK    4  A    between atoms: _6  and  _7
REMARK    5  A    between atoms: _10  and  _12
REMARK    6  A    between atoms: _12  and  _13
REMARK    7  A    between atoms: _12  and  _15
REMARK    8  A    between atoms: _15  and  _16
REMARK    9  A    between atoms: _16  and  _17
REMARK   10  A    between atoms: _20  and  _22
REMARK   11  A    between atoms: _22  and  _23
REMARK   12  A    between atoms: _22  and  _25
REMARK   13  A    between atoms: _25  and  _26
REMARK   14  A    between atoms: _29  and  _31
REMARK   15  A    between atoms: _31  and  _32
REMARK   16  A    between atoms: _34  and  _36
REMARK   17  A    between atoms: _36  and  _37
REMARK   18  A    between atoms: _36  and  _39
REMARK   19  A    between atoms: _39  and  _40
REMARK   20  A    between atoms: _43  and  _45
REMARK   21  A    between atoms: _45  and  _46
REMARK   22  A    between atoms: _45  and  _48
REMARK   23  A    between atoms: _48  and  _49
REMARK   24  A    between atoms: _54  and  _56
REMARK   25  A    between atoms: _56  and  _57
REMARK   26  A    between atoms: _56  and  _59
REMARK   27  A    between atoms: _59  and  _60
REMARK   28  A    between atoms: _60  and  _61
REMARK   29  A    between atoms: _61  and  _62
REMARK   30  A    between atoms: _62  and  _63
REMARK   31  A    between atoms: _67  and  _69
REMARK   32  A    between atoms: _69  and  _70
REMARK   33  A    between atoms: _69  and  _72
REMARK   34  A    between atoms: _72  and  _73
REMARK   35  A    between atoms: _78  and  _80
REMARK   36  A    between atoms: _80  and  _81
REMARK   37  A    between atoms: _80  and  _83
REMARK   38  A    between atoms: _83  and  _84
REMARK   39  A    between atoms: _84  and  _85
REMARK   40  A    between atoms: _90  and  _92
REMARK   41  A    between atoms: _92  and  _93
REMARK   42  A    between atoms: _92  and  _95
REMARK   43  A    between atoms: _95  and  _96
REMARK   44  A    between atoms: _99  and  _101
REMARK   45  A    between atoms: _101  and  _102
REMARK   46  A    between atoms: _101  and  _104
REMARK   47  A    between atoms: _104  and  _105
REMARK   48  A    between atoms: _110  and  _112
REMARK   49  A    between atoms: _112  and  _113
REMARK   50  A    between atoms: _112  and  _115
REMARK   51  A    between atoms: _115  and  _116
REMARK   52  A    between atoms: _116  and  _117
REMARK   53  A    between atoms: _120  and  _122
REMARK   54  A    between atoms: _122  and  _123
REMARK   55  A    between atoms: _122  and  _125
REMARK   56  A    between atoms: _125  and  _126
REMARK   57  A    between atoms: _130  and  _131
REMARK   58  A    between atoms: _136  and  _138
REMARK   59  A    between atoms: _138  and  _139
REMARK   60  A    between atoms: _141  and  _143
REMARK   61  A    between atoms: _143  and  _144
REMARK   62  A    between atoms: _143  and  _146
REMARK   63  A    between atoms: _146  and  _147
REMARK   64  A    between atoms: _152  and  _154
REMARK   65  A    between atoms: _154  and  _155
REMARK   66  A    between atoms: _158  and  _160
REMARK   67  A    between atoms: _160  and  _161
REMARK   68  A    between atoms: _160  and  _163
REMARK   69  A    between atoms: _166  and  _168
REMARK   70  A    between atoms: _168  and  _169
REMARK   71  A    between atoms: _168  and  _171
REMARK   72  A    between atoms: _171  and  _172
REMARK   73  A    between atoms: _174  and  _176
REMARK   74  A    between atoms: _176  and  _177
REMARK   75  A    between atoms: _176  and  _179
REMARK   76  A    between atoms: _179  and  _180
REMARK   77  A    between atoms: _183  and  _185
REMARK   78  A    between atoms: _185  and  _186
REMARK   79  A    between atoms: _185  and  _188
REMARK   80  A    between atoms: _188  and  _189
REMARK   81  A    between atoms: _192  and  _194
REMARK   82  A    between atoms: _194  and  _195
REMARK   83  A    between atoms: _194  and  _197
REMARK   84  A    between atoms: _197  and  _198
REMARK   85  A    between atoms: _198  and  _199
REMARK   86  A    between atoms: _201  and  _203
REMARK   87  A    between atoms: _203  and  _204
REMARK   88  A    between atoms: _203  and  _206
REMARK   89  A    between atoms: _206  and  _207
REMARK   90  A    between atoms: _207  and  _208
REMARK   91  A    between atoms: _208  and  _209
REMARK   92  A    between atoms: _218  and  _220
REMARK   93  A    between atoms: _220  and  _221
REMARK   94  A    between atoms: _220  and  _223
REMARK   95  A    between atoms: _225  and  _227
REMARK   96  A    between atoms: _227  and  _228
REMARK   97  A    between atoms: _227  and  _230
REMARK   98  A    between atoms: _230  and  _231
REMARK   99  A    between atoms: _233  and  _235
REMARK  100  A    between atoms: _235  and  _236
REMARK  101  A    between atoms: _235  and  _238
REMARK  102  A    between atoms: _238  and  _239
REMARK  103  A    between atoms: _242  and  _244
REMARK  104  A    between atoms: _244  and  _245
REMARK  105  A    between atoms: _244  and  _247
REMARK  106  A    between atoms: _247  and  _248
REMARK  107  A    between atoms: _251  and  _253
REMARK  108  A    between atoms: _253  and  _254
REMARK  109  A    between atoms: _253  and  _256
REMARK  110  A    between atoms: _256  and  _257
REMARK  111  A    between atoms: _263  and  _265
REMARK  112  A    between atoms: _265  and  _266
REMARK  113  A    between atoms: _265  and  _268
REMARK  114  A    between atoms: _268  and  _269
REMARK  115  A    between atoms: _269  and  _270
REMARK  116  A    between atoms: _270  and  _271
REMARK  117  A    between atoms: _271  and  _272
REMARK  118  A    between atoms: _276  and  _278
REMARK  119  A    between atoms: _278  and  _279
REMARK  120  A    between atoms: _278  and  _281
REMARK  121  A    between atoms: _281  and  _282
REMARK  122  A    between atoms: _285  and  _287
REMARK  123  A    between atoms: _287  and  _288
REMARK  124  A    between atoms: _290  and  _292
REMARK  125  A    between atoms: _292  and  _293
REMARK  126  A    between atoms: _292  and  _295
REMARK  127  A    between atoms: _295  and  _296
REMARK  128  A    between atoms: _298  and  _300
REMARK  129  A    between atoms: _300  and  _301
REMARK  130  A    between atoms: _303  and  _305
REMARK  131  A    between atoms: _305  and  _306
REMARK  132  A    between atoms: _305  and  _308
REMARK  133  A    between atoms: _308  and  _309
REMARK  134  A    between atoms: _309  and  _310
REMARK  135  A    between atoms: _313  and  _315
REMARK  136  A    between atoms: _315  and  _316
REMARK  137  A    between atoms: _315  and  _318
REMARK  138  A    between atoms: _320  and  _322
REMARK  139  A    between atoms: _322  and  _323
REMARK  140  A    between atoms: _322  and  _325
REMARK  141  A    between atoms: _325  and  _326
REMARK  142  A    between atoms: _329  and  _331
REMARK  143  A    between atoms: _331  and  _332
REMARK  144  A    between atoms: _331  and  _334
REMARK  145  A    between atoms: _334  and  _335
REMARK  146  A    between atoms: _338  and  _340
REMARK  147  A    between atoms: _340  and  _341
REMARK  148  A    between atoms: _340  and  _343
REMARK  149  A    between atoms: _343  and  _344
REMARK  150  A    between atoms: _346  and  _348
REMARK  151  A    between atoms: _348  and  _349
REMARK  152  A    between atoms: _348  and  _351
REMARK  153  A    between atoms: _351  and  _352
REMARK  154  A    between atoms: _355  and  _357
REMARK  155  A    between atoms: _357  and  _358
REMARK  156  A    between atoms: _360  and  _362
REMARK  157  A    between atoms: _362  and  _363
REMARK  158  A    between atoms: _362  and  _365
REMARK  159  A    between atoms: _365  and  _366
REMARK  160  A    between atoms: _366  and  _367
REMARK  161  A    between atoms: _369  and  _371
REMARK  162  A    between atoms: _371  and  _372
REMARK  163  A    between atoms: _371  and  _374
REMARK  164  A    between atoms: _374  and  _375
REMARK  165  A    between atoms: _380  and  _382
REMARK  166  A    between atoms: _382  and  _383
REMARK  167  A    between atoms: _382  and  _385
REMARK  168  A    between atoms: _385  and  _386
REMARK  169  A    between atoms: _389  and  _391
REMARK  170  A    between atoms: _391  and  _392
REMARK  171  A    between atoms: _391  and  _394
REMARK  172  A    between atoms: _394  and  _395
REMARK  173  A    between atoms: _400  and  _402
REMARK  174  A    between atoms: _402  and  _403
REMARK  175  A    between atoms: _402  and  _405
REMARK  176  A    between atoms: _407  and  _409
REMARK  177  A    between atoms: _409  and  _410
REMARK  178  A    between atoms: _409  and  _412
REMARK  179  A    between atoms: _412  and  _413
REMARK  180  A    between atoms: _416  and  _418
REMARK  181  A    between atoms: _418  and  _419
REMARK  182  A    between atoms: _418  and  _421
REMARK  183  A    between atoms: _421  and  _422
REMARK  184  A    between atoms: _427  and  _429
REMARK  185  A    between atoms: _429  and  _430
REMARK  186  A    between atoms: _429  and  _432
REMARK  187  A    between atoms: _432  and  _433
REMARK  188  A    between atoms: _436  and  _438
REMARK  189  A    between atoms: _438  and  _439
REMARK  190  A    between atoms: _438  and  _441
REMARK  191  A    between atoms: _441  and  _442
REMARK  192  A    between atoms: _447  and  _448
REMARK  193  A    between atoms: _450  and  _452
REMARK  194  A    between atoms: _452  and  _453
REMARK  195  A    between atoms: _452  and  _455
REMARK  196  A    between atoms: _455  and  _456
REMARK  197  A    between atoms: _459  and  _461
REMARK  198  A    between atoms: _461  and  _462
REMARK  199  A    between atoms: _461  and  _464
REMARK  200  A    between atoms: _464  and  _465
REMARK  201  A    between atoms: _467  and  _469
REMARK  202  A    between atoms: _469  and  _470
REMARK  203  A    between atoms: _469  and  _472
REMARK  204  A    between atoms: _472  and  _473
REMARK  205  A    between atoms: _476  and  _478
REMARK  206  A    between atoms: _478  and  _479
REMARK  207  A    between atoms: _478  and  _481
REMARK  208  A    between atoms: _481  and  _482
REMARK  209  A    between atoms: _486  and  MN_638
REMARK  210  A    between atoms: _487  and  _489
REMARK  211  A    between atoms: _489  and  _490
REMARK  212  A    between atoms: _489  and  _492
REMARK  213  A    between atoms: _492  and  _493
REMARK  214  A    between atoms: _493  and  _494
REMARK  215  A    between atoms: _497  and  _499
REMARK  216  A    between atoms: _499  and  _500
REMARK  217  A    between atoms: _499  and  _502
REMARK  218  A    between atoms: _502  and  _503
REMARK  219  A    between atoms: _503  and  _504
REMARK  220  A    between atoms: _504  and  _505
REMARK  221  A    between atoms: _514  and  _516
REMARK  222  A    between atoms: _516  and  _517
REMARK  223  A    between atoms: _516  and  _519
REMARK  224  A    between atoms: _519  and  _520
REMARK  225  A    between atoms: _524  and  MN_638
REMARK  226  A    between atoms: _525  and  _527
REMARK  227  A    between atoms: _527  and  _528
REMARK  228  A    between atoms: _531  and  _532
REMARK  229  A    between atoms: _537  and  _539
REMARK  230  A    between atoms: _539  and  _540
REMARK  231  A    between atoms: _539  and  _542
REMARK  232  A    between atoms: _542  and  _543
REMARK  233  A    between atoms: _546  and  _548
REMARK  234  A    between atoms: _548  and  _549
REMARK  235  A    between atoms: _548  and  _551
REMARK  236  A    between atoms: _551  and  _552
REMARK  237  A    between atoms: _555  and  _557
REMARK  238  A    between atoms: _557  and  _558
REMARK  239  A    between atoms: _557  and  _560
REMARK  240  A    between atoms: _563  and  _564
REMARK  241  A    between atoms: _569  and  _571
REMARK  242  A    between atoms: _571  and  _572
REMARK  243  A    between atoms: _571  and  _574
REMARK  244  A    between atoms: _574  and  _575
REMARK  245  A    between atoms: _578  and  _580
REMARK  246  A    between atoms: _580  and  _581
REMARK  247  A    between atoms: _580  and  _583
REMARK  248  A    between atoms: _583  and  _584
REMARK  249  A    between atoms: _584  and  _585
REMARK  250  A    between atoms: _585  and  _586
REMARK  251  A    between atoms: _586  and  _587
REMARK  252  A    between atoms: _591  and  _593
REMARK  253  A    between atoms: _593  and  _594
REMARK  254  A    between atoms: _593  and  _596
REMARK  255  A    between atoms: _596  and  _597
REMARK  256  A    between atoms: _603  and  _605
REMARK  257  A    between atoms: _605  and  _606
REMARK  258  A    between atoms: _609  and  _611
REMARK  259  A    between atoms: _611  and  _612
REMARK  260  A    between atoms: _611  and  _614
REMARK  261  A    between atoms: _614  and  _615
REMARK  262  A    between atoms: _621  and  _623
REMARK  263  A    between atoms: _623  and  _624
REMARK  264  A    between atoms: _623  and  _626
REMARK  265  A    between atoms: _626  and  _627
REMARK  266  A    between atoms: _627  and  _628
REMARK  267  A    between atoms: _628  and  _629
REMARK                            x       y       z     vdW  Elec       q    Type
REMARK                         _______ _______ _______ _____ _____    ______ ____
ROOT
ATOM      1  O   HOH     1      90.877 -26.585  39.588  0.00  0.00    +0.000 OA
ENDROOT
TORSDOF 0
REMARK  Name = ../refined-set-2016/2wqp/2wqp_pocket.pdb
REMARK  267 active torsions:
REMARK  status: ('A' for Active; 'I' for Inactive)
REMARK    1  A    between atoms: _1  and  _3
REMARK    2  A    between atoms: _3  and  _4
REMARK    3  A    between atoms: _3  and  _6
REMARK    4  A    between atoms: _6  and  _7
REMARK    5  A    between atoms: _10  and  _12
REMARK    6  A    between atoms: _12  and  _13
REMARK    7  A    between atoms: _12  and  _15
REMARK    8  A    between atoms: _15  and  _16
REMARK    9  A    between atoms: _16  and  _17
REMARK   10  A    between atoms: _20  and  _22
REMARK   11  A    between atoms: _22  and  _23
REMARK   12  A    between atoms: _22  and  _25
REMARK   13  A    between atoms: _25  and  _26
REMARK   14  A    between atoms: _29  and  _31
REMARK   15  A    between atoms: _31  and  _32
REMARK   16  A    between atoms: _34  and  _36
REMARK   17  A    between atoms: _36  and  _37
REMARK   18  A    between atoms: _36  and  _39
REMARK   19  A    between atoms: _39  and  _40
REMARK   20  A    between atoms: _43  and  _45
REMARK   21  A    between atoms: _45  and  _46
REMARK   22  A    between atoms: _45  and  _48
REMARK   23  A    between atoms: _48  and  _49
REMARK   24  A    between atoms: _54  and  _56
REMARK   25  A    between atoms: _56  and  _57
REMARK   26  A    between atoms: _56  and  _59
REMARK   27  A    between atoms: _59  and  _60
REMARK   28  A    between atoms: _60  and  _61
REMARK   29  A    between atoms: _61  and  _62
REMARK   30  A    between atoms: _62  and  _63
REMARK   31  A    between atoms: _67  and  _69
REMARK   32  A    between atoms: _69  and  _70
REMARK   33  A    between atoms: _69  and  _72
REMARK   34  A    between atoms: _72  and  _73
REMARK   35  A    between atoms: _78  and  _80
REMARK   36  A    between atoms: _80  and  _81
REMARK   37  A    between atoms: _80  and  _83
REMARK   38  A    between atoms: _83  and  _84
REMARK   39  A    between atoms: _84  and  _85
REMARK   40  A    between atoms: _90  and  _92
REMARK   41  A    between atoms: _92  and  _93
REMARK   42  A    between atoms: _92  and  _95
REMARK   43  A    between atoms: _95  and  _96
REMARK   44  A    between atoms: _99  and  _101
REMARK   45  A    between atoms: _101  and  _102
REMARK   46  A    between atoms: _101  and  _104
REMARK   47  A    between atoms: _104  and  _105
REMARK   48  A    between atoms: _110  and  _112
REMARK   49  A    between atoms: _112  and  _113
REMARK   50  A    between atoms: _112  and  _115
REMARK   51  A    between atoms: _115  and  _116
REMARK   52  A    between atoms: _116  and  _117
REMARK   53  A    between atoms: _120  and  _122
REMARK   54  A    between atoms: _122  and  _123
REMARK   55  A    between atoms: _122  and  _125
REMARK   56  A    between atoms: _125  and  _126
REMARK   57  A    between atoms: _130  and  _131
REMARK   58  A    between atoms: _136  and  _138
REMARK   59  A    between atoms: _138  and  _139
REMARK   60  A    between atoms: _141  and  _143
REMARK   61  A    between atoms: _143  and  _144
REMARK   62  A    between atoms: _143  and  _146
REMARK   63  A    between atoms: _146  and  _147
REMARK   64  A    between atoms: _152  and  _154
REMARK   65  A    between atoms: _154  and  _155
REMARK   66  A    between atoms: _158  and  _160
REMARK   67  A    between atoms: _160  and  _161
REMARK   68  A    between atoms: _160  and  _163
REMARK   69  A    between atoms: _166  and  _168
REMARK   70  A    between atoms: _168  and  _169
REMARK   71  A    between atoms: _168  and  _171
REMARK   72  A    between atoms: _171  and  _172
REMARK   73  A    between atoms: _174  and  _176
REMARK   74  A    between atoms: _176  and  _177
REMARK   75  A    between atoms: _176  and  _179
REMARK   76  A    between atoms: _179  and  _180
REMARK   77  A    between atoms: _183  and  _185
REMARK   78  A    between atoms: _185  and  _186
REMARK   79  A    between atoms: _185  and  _188
REMARK   80  A    between atoms: _188  and  _189
REMARK   81  A    between atoms: _192  and  _194
REMARK   82  A    between atoms: _194  and  _195
REMARK   83  A    between atoms: _194  and  _197
REMARK   84  A    between atoms: _197  and  _198
REMARK   85  A    between atoms: _198  and  _199
REMARK   86  A    between atoms: _201  and  _203
REMARK   87  A    between atoms: _203  and  _204
REMARK   88  A    between atoms: _203  and  _206
REMARK   89  A    between atoms: _206  and  _207
REMARK   90  A    between atoms: _207  and  _208
REMARK   91  A    between atoms: _208  and  _209
REMARK   92  A    between atoms: _218  and  _220
REMARK   93  A    between atoms: _220  and  _221
REMARK   94  A    between atoms: _220  and  _223
REMARK   95  A    between atoms: _225  and  _227
REMARK   96  A    between atoms: _227  and  _228
REMARK   97  A    between atoms: _227  and  _230
REMARK   98  A    between atoms: _230  and  _231
REMARK   99  A    between atoms: _233  and  _235
REMARK  100  A    between atoms: _235  and  _236
REMARK  101  A    between atoms: _235  and  _238
REMARK  102  A    between atoms: _238  and  _239
REMARK  103  A    between atoms: _242  and  _244
REMARK  104  A    between atoms: _244  and  _245
REMARK  105  A    between atoms: _244  and  _247
REMARK  106  A    between atoms: _247  and  _248
REMARK  107  A    between atoms: _251  and  _253
REMARK  108  A    between atoms: _253  and  _254
REMARK  109  A    between atoms: _253  and  _256
REMARK  110  A    between atoms: _256  and  _257
REMARK  111  A    between atoms: _263  and  _265
REMARK  112  A    between atoms: _265  and  _266
REMARK  113  A    between atoms: _265  and  _268
REMARK  114  A    between atoms: _268  and  _269
REMARK  115  A    between atoms: _269  and  _270
REMARK  116  A    between atoms: _270  and  _271
REMARK  117  A    between atoms: _271  and  _272
REMARK  118  A    between atoms: _276  and  _278
REMARK  119  A    between atoms: _278  and  _279
REMARK  120  A    between atoms: _278  and  _281
REMARK  121  A    between atoms: _281  and  _282
REMARK  122  A    between atoms: _285  and  _287
REMARK  123  A    between atoms: _287  and  _288
REMARK  124  A    between atoms: _290  and  _292
REMARK  125  A    between atoms: _292  and  _293
REMARK  126  A    between atoms: _292  and  _295
REMARK  127  A    between atoms: _295  and  _296
REMARK  128  A    between atoms: _298  and  _300
REMARK  129  A    between atoms: _300  and  _301
REMARK  130  A    between atoms: _303  and  _305
REMARK  131  A    between atoms: _305  and  _306
REMARK  132  A    between atoms: _305  and  _308
REMARK  133  A    between atoms: _308  and  _309
REMARK  134  A    between atoms: _309  and  _310
REMARK  135  A    between atoms: _313  and  _315
REMARK  136  A    between atoms: _315  and  _316
REMARK  137  A    between atoms: _315  and  _318
REMARK  138  A    between atoms: _320  and  _322
REMARK  139  A    between atoms: _322  and  _323
REMARK  140  A    between atoms: _322  and  _325
REMARK  141  A    between atoms: _325  and  _326
REMARK  142  A    between atoms: _329  and  _331
REMARK  143  A    between atoms: _331  and  _332
REMARK  144  A    between atoms: _331  and  _334
REMARK  145  A    between atoms: _334  and  _335
REMARK  146  A    between atoms: _338  and  _340
REMARK  147  A    between atoms: _340  and  _341
REMARK  148  A    between atoms: _340  and  _343
REMARK  149  A    between atoms: _343  and  _344
REMARK  150  A    between atoms: _346  and  _348
REMARK  151  A    between atoms: _348  and  _349
REMARK  152  A    between atoms: _348  and  _351
REMARK  153  A    between atoms: _351  and  _352
REMARK  154  A    between atoms: _355  and  _357
REMARK  155  A    between atoms: _357  and  _358
REMARK  156  A    between atoms: _360  and  _362
REMARK  157  A    between atoms: _362  and  _363
REMARK  158  A    between atoms: _362  and  _365
REMARK  159  A    between atoms: _365  and  _366
REMARK  160  A    between atoms: _366  and  _367
REMARK  161  A    between atoms: _369  and  _371
REMARK  162  A    between atoms: _371  and  _372
REMARK  163  A    between atoms: _371  and  _374
REMARK  164  A    between atoms: _374  and  _375
REMARK  165  A    between atoms: _380  and  _382
REMARK  166  A    between atoms: _382  and  _383
REMARK  167  A    between atoms: _382  and  _385
REMARK  168  A    between atoms: _385  and  _386
REMARK  169  A    between atoms: _389  and  _391
REMARK  170  A    between atoms: _391  and  _392
REMARK  171  A    between atoms: _391  and  _394
REMARK  172  A    between atoms: _394  and  _395
REMARK  173  A    between atoms: _400  and  _402
REMARK  174  A    between atoms: _402  and  _403
REMARK  175  A    between atoms: _402  and  _405
REMARK  176  A    between atoms: _407  and  _409
REMARK  177  A    between atoms: _409  and  _410
REMARK  178  A    between atoms: _409  and  _412
REMARK  179  A    between atoms: _412  and  _413
REMARK  180  A    between atoms: _416  and  _418
REMARK  181  A    between atoms: _418  and  _419
REMARK  182  A    between atoms: _418  and  _421
REMARK  183  A    between atoms: _421  and  _422
REMARK  184  A    between atoms: _427  and  _429
REMARK  185  A    between atoms: _429  and  _430
REMARK  186  A    between atoms: _429  and  _432
REMARK  187  A    between atoms: _432  and  _433
REMARK  188  A    between atoms: _436  and  _438
REMARK  189  A    between atoms: _438  and  _439
REMARK  190  A    between atoms: _438  and  _441
REMARK  191  A    between atoms: _441  and  _442
REMARK  192  A    between atoms: _447  and  _448
REMARK  193  A    between atoms: _450  and  _452
REMARK  194  A    between atoms: _452  and  _453
REMARK  195  A    between atoms: _452  and  _455
REMARK  196  A    between atoms: _455  and  _456
REMARK  197  A    between atoms: _459  and  _461
REMARK  198  A    between atoms: _461  and  _462
REMARK  199  A    between atoms: _461  and  _464
REMARK  200  A    between atoms: _464  and  _465
REMARK  201  A    between atoms: _467  and  _469
REMARK  202  A    between atoms: _469  and  _470
REMARK  203  A    between atoms: _469  and  _472
REMARK  204  A    between atoms: _472  and  _473
REMARK  205  A    between atoms: _476  and  _478
REMARK  206  A    between atoms: _478  and  _479
REMARK  207  A    between atoms: _478  and  _481
REMARK  208  A    between atoms: _481  and  _482
REMARK  209  A    between atoms: _486  and  MN_638
REMARK  210  A    between atoms: _487  and  _489
REMARK  211  A    between atoms: _489  and  _490
REMARK  212  A    between atoms: _489  and  _492
REMARK  213  A    between atoms: _492  and  _493
REMARK  214  A    between atoms: _493  and  _494
REMARK  215  A    between atoms: _497  and  _499
REMARK  216  A    between atoms: _499  and  _500
REMARK  217  A    between atoms: _499  and  _502
REMARK  218  A    between atoms: _502  and  _503
REMARK  219  A    between atoms: _503  and  _504
REMARK  220  A    between atoms: _504  and  _505
REMARK  221  A    between atoms: _514  and  _516
REMARK  222  A    between atoms: _516  and  _517
REMARK  223  A    between atoms: _516  and  _519
REMARK  224  A    between atoms: _519  and  _520
REMARK  225  A    between atoms: _524  and  MN_638
REMARK  226  A    between atoms: _525  and  _527
REMARK  227  A    between atoms: _527  and  _528
REMARK  228  A    between atoms: _531  and  _532
REMARK  229  A    between atoms: _537  and  _539
REMARK  230  A    between atoms: _539  and  _540
REMARK  231  A    between atoms: _539  and  _542
REMARK  232  A    between atoms: _542  and  _543
REMARK  233  A    between atoms: _546  and  _548
REMARK  234  A    between atoms: _548  and  _549
REMARK  235  A    between atoms: _548  and  _551
REMARK  236  A    between atoms: _551  and  _552
REMARK  237  A    between atoms: _555  and  _557
REMARK  238  A    between atoms: _557  and  _558
REMARK  239  A    between atoms: _557  and  _560
REMARK  240  A    between atoms: _563  and  _564
REMARK  241  A    between atoms: _569  and  _571
REMARK  242  A    between atoms: _571  and  _572
REMARK  243  A    between atoms: _571  and  _574
REMARK  244  A    between atoms: _574  and  _575
REMARK  245  A    between atoms: _578  and  _580
REMARK  246  A    between atoms: _580  and  _581
REMARK  247  A    between atoms: _580  and  _583
REMARK  248  A    between atoms: _583  and  _584
REMARK  249  A    between atoms: _584  and  _585
REMARK  250  A    between atoms: _585  and  _586
REMARK  251  A    between atoms: _586  and  _587
REMARK  252  A    between atoms: _591  and  _593
REMARK  253  A    between atoms: _593  and  _594
REMARK  254  A    between atoms: _593  and  _596
REMARK  255  A    between atoms: _596  and  _597
REMARK  256  A    between atoms: _603  and  _605
REMARK  257  A    between atoms: _605  and  _606
REMARK  258  A    between atoms: _609  and  _611
REMARK  259  A    between atoms: _611  and  _612
REMARK  260  A    between atoms: _611  and  _614
REMARK  261  A    between atoms: _614  and  _615
REMARK  262  A    between atoms: _621  and  _623
REMARK  263  A    between atoms: _623  and  _624
REMARK  264  A    between atoms: _623  and  _626
REMARK  265  A    between atoms: _626  and  _627
REMARK  266  A    between atoms: _627  and  _628
REMARK  267  A    between atoms: _628  and  _629
REMARK                            x       y       z     vdW  Elec       q    Type
REMARK                         _______ _______ _______ _____ _____    ______ ____
ROOT
ATOM      1  O   HOH     1      97.533 -21.387  45.251  0.00  0.00    +0.000 OA
ENDROOT
TORSDOF 0
REMARK  Name = ../refined-set-2016/2wqp/2wqp_pocket.pdb
REMARK  267 active torsions:
REMARK  status: ('A' for Active; 'I' for Inactive)
REMARK    1  A    between atoms: _1  and  _3
REMARK    2  A    between atoms: _3  and  _4
REMARK    3  A    between atoms: _3  and  _6
REMARK    4  A    between atoms: _6  and  _7
REMARK    5  A    between atoms: _10  and  _12
REMARK    6  A    between atoms: _12  and  _13
REMARK    7  A    between atoms: _12  and  _15
REMARK    8  A    between atoms: _15  and  _16
REMARK    9  A    between atoms: _16  and  _17
REMARK   10  A    between atoms: _20  and  _22
REMARK   11  A    between atoms: _22  and  _23
REMARK   12  A    between atoms: _22  and  _25
REMARK   13  A    between atoms: _25  and  _26
REMARK   14  A    between atoms: _29  and  _31
REMARK   15  A    between atoms: _31  and  _32
REMARK   16  A    between atoms: _34  and  _36
REMARK   17  A    between atoms: _36  and  _37
REMARK   18  A    between atoms: _36  and  _39
REMARK   19  A    between atoms: _39  and  _40
REMARK   20  A    between atoms: _43  and  _45
REMARK   21  A    between atoms: _45  and  _46
REMARK   22  A    between atoms: _45  and  _48
REMARK   23  A    between atoms: _48  and  _49
REMARK   24  A    between atoms: _54  and  _56
REMARK   25  A    between atoms: _56  and  _57
REMARK   26  A    between atoms: _56  and  _59
REMARK   27  A    between atoms: _59  and  _60
REMARK   28  A    between atoms: _60  and  _61
REMARK   29  A    between atoms: _61  and  _62
REMARK   30  A    between atoms: _62  and  _63
REMARK   31  A    between atoms: _67  and  _69
REMARK   32  A    between atoms: _69  and  _70
REMARK   33  A    between atoms: _69  and  _72
REMARK   34  A    between atoms: _72  and  _73
REMARK   35  A    between atoms: _78  and  _80
REMARK   36  A    between atoms: _80  and  _81
REMARK   37  A    between atoms: _80  and  _83
REMARK   38  A    between atoms: _83  and  _84
REMARK   39  A    between atoms: _84  and  _85
REMARK   40  A    between atoms: _90  and  _92
REMARK   41  A    between atoms: _92  and  _93
REMARK   42  A    between atoms: _92  and  _95
REMARK   43  A    between atoms: _95  and  _96
REMARK   44  A    between atoms: _99  and  _101
REMARK   45  A    between atoms: _101  and  _102
REMARK   46  A    between atoms: _101  and  _104
REMARK   47  A    between atoms: _104  and  _105
REMARK   48  A    between atoms: _110  and  _112
REMARK   49  A    between atoms: _112  and  _113
REMARK   50  A    between atoms: _112  and  _115
REMARK   51  A    between atoms: _115  and  _116
REMARK   52  A    between atoms: _116  and  _117
REMARK   53  A    between atoms: _120  and  _122
REMARK   54  A    between atoms: _122  and  _123
REMARK   55  A    between atoms: _122  and  _125
REMARK   56  A    between atoms: _125  and  _126
REMARK   57  A    between atoms: _130  and  _131
REMARK   58  A    between atoms: _136  and  _138
REMARK   59  A    between atoms: _138  and  _139
REMARK   60  A    between atoms: _141  and  _143
REMARK   61  A    between atoms: _143  and  _144
REMARK   62  A    between atoms: _143  and  _146
REMARK   63  A    between atoms: _146  and  _147
REMARK   64  A    between atoms: _152  and  _154
REMARK   65  A    between atoms: _154  and  _155
REMARK   66  A    between atoms: _158  and  _160
REMARK   67  A    between atoms: _160  and  _161
REMARK   68  A    between atoms: _160  and  _163
REMARK   69  A    between atoms: _166  and  _168
REMARK   70  A    between atoms: _168  and  _169
REMARK   71  A    between atoms: _168  and  _171
REMARK   72  A    between atoms: _171  and  _172
REMARK   73  A    between atoms: _174  and  _176
REMARK   74  A    between atoms: _176  and  _177
REMARK   75  A    between atoms: _176  and  _179
REMARK   76  A    between atoms: _179  and  _180
REMARK   77  A    between atoms: _183  and  _185
REMARK   78  A    between atoms: _185  and  _186
REMARK   79  A    between atoms: _185  and  _188
REMARK   80  A    between atoms: _188  and  _189
REMARK   81  A    between atoms: _192  and  _194
REMARK   82  A    between atoms: _194  and  _195
REMARK   83  A    between atoms: _194  and  _197
REMARK   84  A    between atoms: _197  and  _198
REMARK   85  A    between atoms: _198  and  _199
REMARK   86  A    between atoms: _201  and  _203
REMARK   87  A    between atoms: _203  and  _204
REMARK   88  A    between atoms: _203  and  _206
REMARK   89  A    between atoms: _206  and  _207
REMARK   90  A    between atoms: _207  and  _208
REMARK   91  A    between atoms: _208  and  _209
REMARK   92  A    between atoms: _218  and  _220
REMARK   93  A    between atoms: _220  and  _221
REMARK   94  A    between atoms: _220  and  _223
REMARK   95  A    between atoms: _225  and  _227
REMARK   96  A    between atoms: _227  and  _228
REMARK   97  A    between atoms: _227  and  _230
REMARK   98  A    between atoms: _230  and  _231
REMARK   99  A    between atoms: _233  and  _235
REMARK  100  A    between atoms: _235  and  _236
REMARK  101  A    between atoms: _235  and  _238
REMARK  102  A    between atoms: _238  and  _239
REMARK  103  A    between atoms: _242  and  _244
REMARK  104  A    between atoms: _244  and  _245
REMARK  105  A    between atoms: _244  and  _247
REMARK  106  A    between atoms: _247  and  _248
REMARK  107  A    between atoms: _251  and  _253
REMARK  108  A    between atoms: _253  and  _254
REMARK  109  A    between atoms: _253  and  _256
REMARK  110  A    between atoms: _256  and  _257
REMARK  111  A    between atoms: _263  and  _265
REMARK  112  A    between atoms: _265  and  _266
REMARK  113  A    between atoms: _265  and  _268
REMARK  114  A    between atoms: _268  and  _269
REMARK  115  A    between atoms: _269  and  _270
REMARK  116  A    between atoms: _270  and  _271
REMARK  117  A    between atoms: _271  and  _272
REMARK  118  A    between atoms: _276  and  _278
REMARK  119  A    between atoms: _278  and  _279
REMARK  120  A    between atoms: _278  and  _281
REMARK  121  A    between atoms: _281  and  _282
REMARK  122  A    between atoms: _285  and  _287
REMARK  123  A    between atoms: _287  and  _288
REMARK  124  A    between atoms: _290  and  _292
REMARK  125  A    between atoms: _292  and  _293
REMARK  126  A    between atoms: _292  and  _295
REMARK  127  A    between atoms: _295  and  _296
REMARK  128  A    between atoms: _298  and  _300
REMARK  129  A    between atoms: _300  and  _301
REMARK  130  A    between atoms: _303  and  _305
REMARK  131  A    between atoms: _305  and  _306
REMARK  132  A    between atoms: _305  and  _308
REMARK  133  A    between atoms: _308  and  _309
REMARK  134  A    between atoms: _309  and  _310
REMARK  135  A    between atoms: _313  and  _315
REMARK  136  A    between atoms: _315  and  _316
REMARK  137  A    between atoms: _315  and  _318
REMARK  138  A    between atoms: _320  and  _322
REMARK  139  A    between atoms: _322  and  _323
REMARK  140  A    between atoms: _322  and  _325
REMARK  141  A    between atoms: _325  and  _326
REMARK  142  A    between atoms: _329  and  _331
REMARK  143  A    between atoms: _331  and  _332
REMARK  144  A    between atoms: _331  and  _334
REMARK  145  A    between atoms: _334  and  _335
REMARK  146  A    between atoms: _338  and  _340
REMARK  147  A    between atoms: _340  and  _341
REMARK  148  A    between atoms: _340  and  _343
REMARK  149  A    between atoms: _343  and  _344
REMARK  150  A    between atoms: _346  and  _348
REMARK  151  A    between atoms: _348  and  _349
REMARK  152  A    between atoms: _348  and  _351
REMARK  153  A    between atoms: _351  and  _352
REMARK  154  A    between atoms: _355  and  _357
REMARK  155  A    between atoms: _357  and  _358
REMARK  156  A    between atoms: _360  and  _362
REMARK  157  A    between atoms: _362  and  _363
REMARK  158  A    between atoms: _362  and  _365
REMARK  159  A    between atoms: _365  and  _366
REMARK  160  A    between atoms: _366  and  _367
REMARK  161  A    between atoms: _369  and  _371
REMARK  162  A    between atoms: _371  and  _372
REMARK  163  A    between atoms: _371  and  _374
REMARK  164  A    between atoms: _374  and  _375
REMARK  165  A    between atoms: _380  and  _382
REMARK  166  A    between atoms: _382  and  _383
REMARK  167  A    between atoms: _382  and  _385
REMARK  168  A    between atoms: _385  and  _386
REMARK  169  A    between atoms: _389  and  _391
REMARK  170  A    between atoms: _391  and  _392
REMARK  171  A    between atoms: _391  and  _394
REMARK  172  A    between atoms: _394  and  _395
REMARK  173  A    between atoms: _400  and  _402
REMARK  174  A    between atoms: _402  and  _403
REMARK  175  A    between atoms: _402  and  _405
REMARK  176  A    between atoms: _407  and  _409
REMARK  177  A    between atoms: _409  and  _410
REMARK  178  A    between atoms: _409  and  _412
REMARK  179  A    between atoms: _412  and  _413
REMARK  180  A    between atoms: _416  and  _418
REMARK  181  A    between atoms: _418  and  _419
REMARK  182  A    between atoms: _418  and  _421
REMARK  183  A    between atoms: _421  and  _422
REMARK  184  A    between atoms: _427  and  _429
REMARK  185  A    between atoms: _429  and  _430
REMARK  186  A    between atoms: _429  and  _432
REMARK  187  A    between atoms: _432  and  _433
REMARK  188  A    between atoms: _436  and  _438
REMARK  189  A    between atoms: _438  and  _439
REMARK  190  A    between atoms: _438  and  _441
REMARK  191  A    between atoms: _441  and  _442
REMARK  192  A    between atoms: _447  and  _448
REMARK  193  A    between atoms: _450  and  _452
REMARK  194  A    between atoms: _452  and  _453
REMARK  195  A    between atoms: _452  and  _455
REMARK  196  A    between atoms: _455  and  _456
REMARK  197  A    between atoms: _459  and  _461
REMARK  198  A    between atoms: _461  and  _462
REMARK  199  A    between atoms: _461  and  _464
REMARK  200  A    between atoms: _464  and  _465
REMARK  201  A    between atoms: _467  and  _469
REMARK  202  A    between atoms: _469  and  _470
REMARK  203  A    between atoms: _469  and  _472
REMARK  204  A    between atoms: _472  and  _473
REMARK  205  A    between atoms: _476  and  _478
REMARK  206  A    between atoms: _478  and  _479
REMARK  207  A    between atoms: _478  and  _481
REMARK  208  A    between atoms: _481  and  _482
REMARK  209  A    between atoms: _486  and  MN_638
REMARK  210  A    between atoms: _487  and  _489
REMARK  211  A    between atoms: _489  and  _490
REMARK  212  A    between atoms: _489  and  _492
REMARK  213  A    between atoms: _492  and  _493
REMARK  214  A    between atoms: _493  and  _494
REMARK  215  A    between atoms: _497  and  _499
REMARK  216  A    between atoms: _499  and  _500
REMARK  217  A    between atoms: _499  and  _502
REMARK  218  A    between atoms: _502  and  _503
REMARK  219  A    between atoms: _503  and  _504
REMARK  220  A    between atoms: _504  and  _505
REMARK  221  A    between atoms: _514  and  _516
REMARK  222  A    between atoms: _516  and  _517
REMARK  223  A    between atoms: _516  and  _519
REMARK  224  A    between atoms: _519  and  _520
REMARK  225  A    between atoms: _524  and  MN_638
REMARK  226  A    between atoms: _525  and  _527
REMARK  227  A    between atoms: _527  and  _528
REMARK  228  A    between atoms: _531  and  _532
REMARK  229  A    between atoms: _537  and  _539
REMARK  230  A    between atoms: _539  and  _540
REMARK  231  A    between atoms: _539  and  _542
REMARK  232  A    between atoms: _542  and  _543
REMARK  233  A    between atoms: _546  and  _548
REMARK  234  A    between atoms: _548  and  _549
REMARK  235  A    between atoms: _548  and  _551
REMARK  236  A    between atoms: _551  and  _552
REMARK  237  A    between atoms: _555  and  _557
REMARK  238  A    between atoms: _557  and  _558
REMARK  239  A    between atoms: _557  and  _560
REMARK  240  A    between atoms: _563  and  _564
REMARK  241  A    between atoms: _569  and  _571
REMARK  242  A    between atoms: _571  and  _572
REMARK  243  A    between atoms: _571  and  _574
REMARK  244  A    between atoms: _574  and  _575
REMARK  245  A    between atoms: _578  and  _580
REMARK  246  A    between atoms: _580  and  _581
REMARK  247  A    between atoms: _580  and  _583
REMARK  248  A    between atoms: _583  and  _584
REMARK  249  A    between atoms: _584  and  _585
REMARK  250  A    between atoms: _585  and  _586
REMARK  251  A    between atoms: _586  and  _587
REMARK  252  A    between atoms: _591  and  _593
REMARK  253  A    between atoms: _593  and  _594
REMARK  254  A    between atoms: _593  and  _596
REMARK  255  A    between atoms: _596  and  _597
REMARK  256  A    between atoms: _603  and  _605
REMARK  257  A    between atoms: _605  and  _606
REMARK  258  A    between atoms: _609  and  _611
REMARK  259  A    between atoms: _611  and  _612
REMARK  260  A    between atoms: _611  and  _614
REMARK  261  A    between atoms: _614  and  _615
REMARK  262  A    between atoms: _621  and  _623
REMARK  263  A    between atoms: _623  and  _624
REMARK  264  A    between atoms: _623  and  _626
REMARK  265  A    between atoms: _626  and  _627
REMARK  266  A    between atoms: _627  and  _628
REMARK  267  A    between atoms: _628  and  _629
REMARK                            x       y       z     vdW  Elec       q    Type
REMARK                         _______ _______ _______ _____ _____    ______ ____
ROOT
ATOM      1  O   HOH     1      91.439 -25.889  49.896  0.00  0.00    +0.000 OA
ENDROOT
TORSDOF 0
REMARK  Name = ../refined-set-2016/2wqp/2wqp_pocket.pdb
REMARK  267 active torsions:
REMARK  status: ('A' for Active; 'I' for Inactive)
REMARK    1  A    between atoms: _1  and  _3
REMARK    2  A    between atoms: _3  and  _4
REMARK    3  A    between atoms: _3  and  _6
REMARK    4  A    between atoms: _6  and  _7
REMARK    5  A    between atoms: _10  and  _12
REMARK    6  A    between atoms: _12  and  _13
REMARK    7  A    between atoms: _12  and  _15
REMARK    8  A    between atoms: _15  and  _16
REMARK    9  A    between atoms: _16  and  _17
REMARK   10  A    between atoms: _20  and  _22
REMARK   11  A    between atoms: _22  and  _23
REMARK   12  A    between atoms: _22  and  _25
REMARK   13  A    between atoms: _25  and  _26
REMARK   14  A    between atoms: _29  and  _31
REMARK   15  A    between atoms: _31  and  _32
REMARK   16  A    between atoms: _34  and  _36
REMARK   17  A    between atoms: _36  and  _37
REMARK   18  A    between atoms: _36  and  _39
REMARK   19  A    between atoms: _39  and  _40
REMARK   20  A    between atoms: _43  and  _45
REMARK   21  A    between atoms: _45  and  _46
REMARK   22  A    between atoms: _45  and  _48
REMARK   23  A    between atoms: _48  and  _49
REMARK   24  A    between atoms: _54  and  _56
REMARK   25  A    between atoms: _56  and  _57
REMARK   26  A    between atoms: _56  and  _59
REMARK   27  A    between atoms: _59  and  _60
REMARK   28  A    between atoms: _60  and  _61
REMARK   29  A    between atoms: _61  and  _62
REMARK   30  A    between atoms: _62  and  _63
REMARK   31  A    between atoms: _67  and  _69
REMARK   32  A    between atoms: _69  and  _70
REMARK   33  A    between atoms: _69  and  _72
REMARK   34  A    between atoms: _72  and  _73
REMARK   35  A    between atoms: _78  and  _80
REMARK   36  A    between atoms: _80  and  _81
REMARK   37  A    between atoms: _80  and  _83
REMARK   38  A    between atoms: _83  and  _84
REMARK   39  A    between atoms: _84  and  _85
REMARK   40  A    between atoms: _90  and  _92
REMARK   41  A    between atoms: _92  and  _93
REMARK   42  A    between atoms: _92  and  _95
REMARK   43  A    between atoms: _95  and  _96
REMARK   44  A    between atoms: _99  and  _101
REMARK   45  A    between atoms: _101  and  _102
REMARK   46  A    between atoms: _101  and  _104
REMARK   47  A    between atoms: _104  and  _105
REMARK   48  A    between atoms: _110  and  _112
REMARK   49  A    between atoms: _112  and  _113
REMARK   50  A    between atoms: _112  and  _115
REMARK   51  A    between atoms: _115  and  _116
REMARK   52  A    between atoms: _116  and  _117
REMARK   53  A    between atoms: _120  and  _122
REMARK   54  A    between atoms: _122  and  _123
REMARK   55  A    between atoms: _122  and  _125
REMARK   56  A    between atoms: _125  and  _126
REMARK   57  A    between atoms: _130  and  _131
REMARK   58  A    between atoms: _136  and  _138
REMARK   59  A    between atoms: _138  and  _139
REMARK   60  A    between atoms: _141  and  _143
REMARK   61  A    between atoms: _143  and  _144
REMARK   62  A    between atoms: _143  and  _146
REMARK   63  A    between atoms: _146  and  _147
REMARK   64  A    between atoms: _152  and  _154
REMARK   65  A    between atoms: _154  and  _155
REMARK   66  A    between atoms: _158  and  _160
REMARK   67  A    between atoms: _160  and  _161
REMARK   68  A    between atoms: _160  and  _163
REMARK   69  A    between atoms: _166  and  _168
REMARK   70  A    between atoms: _168  and  _169
REMARK   71  A    between atoms: _168  and  _171
REMARK   72  A    between atoms: _171  and  _172
REMARK   73  A    between atoms: _174  and  _176
REMARK   74  A    between atoms: _176  and  _177
REMARK   75  A    between atoms: _176  and  _179
REMARK   76  A    between atoms: _179  and  _180
REMARK   77  A    between atoms: _183  and  _185
REMARK   78  A    between atoms: _185  and  _186
REMARK   79  A    between atoms: _185  and  _188
REMARK   80  A    between atoms: _188  and  _189
REMARK   81  A    between atoms: _192  and  _194
REMARK   82  A    between atoms: _194  and  _195
REMARK   83  A    between atoms: _194  and  _197
REMARK   84  A    between atoms: _197  and  _198
REMARK   85  A    between atoms: _198  and  _199
REMARK   86  A    between atoms: _201  and  _203
REMARK   87  A    between atoms: _203  and  _204
REMARK   88  A    between atoms: _203  and  _206
REMARK   89  A    between atoms: _206  and  _207
REMARK   90  A    between atoms: _207  and  _208
REMARK   91  A    between atoms: _208  and  _209
REMARK   92  A    between atoms: _218  and  _220
REMARK   93  A    between atoms: _220  and  _221
REMARK   94  A    between atoms: _220  and  _223
REMARK   95  A    between atoms: _225  and  _227
REMARK   96  A    between atoms: _227  and  _228
REMARK   97  A    between atoms: _227  and  _230
REMARK   98  A    between atoms: _230  and  _231
REMARK   99  A    between atoms: _233  and  _235
REMARK  100  A    between atoms: _235  and  _236
REMARK  101  A    between atoms: _235  and  _238
REMARK  102  A    between atoms: _238  and  _239
REMARK  103  A    between atoms: _242  and  _244
REMARK  104  A    between atoms: _244  and  _245
REMARK  105  A    between atoms: _244  and  _247
REMARK  106  A    between atoms: _247  and  _248
REMARK  107  A    between atoms: _251  and  _253
REMARK  108  A    between atoms: _253  and  _254
REMARK  109  A    between atoms: _253  and  _256
REMARK  110  A    between atoms: _256  and  _257
REMARK  111  A    between atoms: _263  and  _265
REMARK  112  A    between atoms: _265  and  _266
REMARK  113  A    between atoms: _265  and  _268
REMARK  114  A    between atoms: _268  and  _269
REMARK  115  A    between atoms: _269  and  _270
REMARK  116  A    between atoms: _270  and  _271
REMARK  117  A    between atoms: _271  and  _272
REMARK  118  A    between atoms: _276  and  _278
REMARK  119  A    between atoms: _278  and  _279
REMARK  120  A    between atoms: _278  and  _281
REMARK  121  A    between atoms: _281  and  _282
REMARK  122  A    between atoms: _285  and  _287
REMARK  123  A    between atoms: _287  and  _288
REMARK  124  A    between atoms: _290  and  _292
REMARK  125  A    between atoms: _292  and  _293
REMARK  126  A    between atoms: _292  and  _295
REMARK  127  A    between atoms: _295  and  _296
REMARK  128  A    between atoms: _298  and  _300
REMARK  129  A    between atoms: _300  and  _301
REMARK  130  A    between atoms: _303  and  _305
REMARK  131  A    between atoms: _305  and  _306
REMARK  132  A    between atoms: _305  and  _308
REMARK  133  A    between atoms: _308  and  _309
REMARK  134  A    between atoms: _309  and  _310
REMARK  135  A    between atoms: _313  and  _315
REMARK  136  A    between atoms: _315  and  _316
REMARK  137  A    between atoms: _315  and  _318
REMARK  138  A    between atoms: _320  and  _322
REMARK  139  A    between atoms: _322  and  _323
REMARK  140  A    between atoms: _322  and  _325
REMARK  141  A    between atoms: _325  and  _326
REMARK  142  A    between atoms: _329  and  _331
REMARK  143  A    between atoms: _331  and  _332
REMARK  144  A    between atoms: _331  and  _334
REMARK  145  A    between atoms: _334  and  _335
REMARK  146  A    between atoms: _338  and  _340
REMARK  147  A    between atoms: _340  and  _341
REMARK  148  A    between atoms: _340  and  _343
REMARK  149  A    between atoms: _343  and  _344
REMARK  150  A    between atoms: _346  and  _348
REMARK  151  A    between atoms: _348  and  _349
REMARK  152  A    between atoms: _348  and  _351
REMARK  153  A    between atoms: _351  and  _352
REMARK  154  A    between atoms: _355  and  _357
REMARK  155  A    between atoms: _357  and  _358
REMARK  156  A    between atoms: _360  and  _362
REMARK  157  A    between atoms: _362  and  _363
REMARK  158  A    between atoms: _362  and  _365
REMARK  159  A    between atoms: _365  and  _366
REMARK  160  A    between atoms: _366  and  _367
REMARK  161  A    between atoms: _369  and  _371
REMARK  162  A    between atoms: _371  and  _372
REMARK  163  A    between atoms: _371  and  _374
REMARK  164  A    between atoms: _374  and  _375
REMARK  165  A    between atoms: _380  and  _382
REMARK  166  A    between atoms: _382  and  _383
REMARK  167  A    between atoms: _382  and  _385
REMARK  168  A    between atoms: _385  and  _386
REMARK  169  A    between atoms: _389  and  _391
REMARK  170  A    between atoms: _391  and  _392
REMARK  171  A    between atoms: _391  and  _394
REMARK  172  A    between atoms: _394  and  _395
REMARK  173  A    between atoms: _400  and  _402
REMARK  174  A    between atoms: _402  and  _403
REMARK  175  A    between atoms: _402  and  _405
REMARK  176  A    between atoms: _407  and  _409
REMARK  177  A    between atoms: _409  and  _410
REMARK  178  A    between atoms: _409  and  _412
REMARK  179  A    between atoms: _412  and  _413
REMARK  180  A    between atoms: _416  and  _418
REMARK  181  A    between atoms: _418  and  _419
REMARK  182  A    between atoms: _418  and  _421
REMARK  183  A    between atoms: _421  and  _422
REMARK  184  A    between atoms: _427  and  _429
REMARK  185  A    between atoms: _429  and  _430
REMARK  186  A    between atoms: _429  and  _432
REMARK  187  A    between atoms: _432  and  _433
REMARK  188  A    between atoms: _436  and  _438
REMARK  189  A    between atoms: _438  and  _439
REMARK  190  A    between atoms: _438  and  _441
REMARK  191  A    between atoms: _441  and  _442
REMARK  192  A    between atoms: _447  and  _448
REMARK  193  A    between atoms: _450  and  _452
REMARK  194  A    between atoms: _452  and  _453
REMARK  195  A    between atoms: _452  and  _455
REMARK  196  A    between atoms: _455  and  _456
REMARK  197  A    between atoms: _459  and  _461
REMARK  198  A    between atoms: _461  and  _462
REMARK  199  A    between atoms: _461  and  _464
REMARK  200  A    between atoms: _464  and  _465
REMARK  201  A    between atoms: _467  and  _469
REMARK  202  A    between atoms: _469  and  _470
REMARK  203  A    between atoms: _469  and  _472
REMARK  204  A    between atoms: _472  and  _473
REMARK  205  A    between atoms: _476  and  _478
REMARK  206  A    between atoms: _478  and  _479
REMARK  207  A    between atoms: _478  and  _481
REMARK  208  A    between atoms: _481  and  _482
REMARK  209  A    between atoms: _486  and  MN_638
REMARK  210  A    between atoms: _487  and  _489
REMARK  211  A    between atoms: _489  and  _490
REMARK  212  A    between atoms: _489  and  _492
REMARK  213  A    between atoms: _492  and  _493
REMARK  214  A    between atoms: _493  and  _494
REMARK  215  A    between atoms: _497  and  _499
REMARK  216  A    between atoms: _499  and  _500
REMARK  217  A    between atoms: _499  and  _502
REMARK  218  A    between atoms: _502  and  _503
REMARK  219  A    between atoms: _503  and  _504
REMARK  220  A    between atoms: _504  and  _505
REMARK  221  A    between atoms: _514  and  _516
REMARK  222  A    between atoms: _516  and  _517
REMARK  223  A    between atoms: _516  and  _519
REMARK  224  A    between atoms: _519  and  _520
REMARK  225  A    between atoms: _524  and  MN_638
REMARK  226  A    between atoms: _525  and  _527
REMARK  227  A    between atoms: _527  and  _528
REMARK  228  A    between atoms: _531  and  _532
REMARK  229  A    between atoms: _537  and  _539
REMARK  230  A    between atoms: _539  and  _540
REMARK  231  A    between atoms: _539  and  _542
REMARK  232  A    between atoms: _542  and  _543
REMARK  233  A    between atoms: _546  and  _548
REMARK  234  A    between atoms: _548  and  _549
REMARK  235  A    between atoms: _548  and  _551
REMARK  236  A    between atoms: _551  and  _552
REMARK  237  A    between atoms: _555  and  _557
REMARK  238  A    between atoms: _557  and  _558
REMARK  239  A    between atoms: _557  and  _560
REMARK  240  A    between atoms: _563  and  _564
REMARK  241  A    between atoms: _569  and  _571
REMARK  242  A    between atoms: _571  and  _572
REMARK  243  A    between atoms: _571  and  _574
REMARK  244  A    between atoms: _574  and  _575
REMARK  245  A    between atoms: _578  and  _580
REMARK  246  A    between atoms: _580  and  _581
REMARK  247  A    between atoms: _580  and  _583
REMARK  248  A    between atoms: _583  and  _584
REMARK  249  A    between atoms: _584  and  _585
REMARK  250  A    between atoms: _585  and  _586
REMARK  251  A    between atoms: _586  and  _587
REMARK  252  A    between atoms: _591  and  _593
REMARK  253  A    between atoms: _593  and  _594
REMARK  254  A    between atoms: _593  and  _596
REMARK  255  A    between atoms: _596  and  _597
REMARK  256  A    between atoms: _603  and  _605
REMARK  257  A    between atoms: _605  and  _606
REMARK  258  A    between atoms: _609  and  _611
REMARK  259  A    between atoms: _611  and  _612
REMARK  260  A    between atoms: _611  and  _614
REMARK  261  A    between atoms: _614  and  _615
REMARK  262  A    between atoms: _621  and  _623
REMARK  263  A    between atoms: _623  and  _624
REMARK  264  A    between atoms: _623  and  _626
REMARK  265  A    between atoms: _626  and  _627
REMARK  266  A    between atoms: _627  and  _628
REMARK  267  A    between atoms: _628  and  _629
REMARK                            x       y       z     vdW  Elec       q    Type
REMARK                         _______ _______ _______ _____ _____    ______ ____
ROOT
ATOM      1  O   HOH     1      97.866 -26.894  51.478  0.00  0.00    +0.000 OA
ENDROOT
TORSDOF 0
REMARK  Name = ../refined-set-2016/2wqp/2wqp_pocket.pdb
REMARK  267 active torsions:
REMARK  status: ('A' for Active; 'I' for Inactive)
REMARK    1  A    between atoms: _1  and  _3
REMARK    2  A    between atoms: _3  and  _4
REMARK    3  A    between atoms: _3  and  _6
REMARK    4  A    between atoms: _6  and  _7
REMARK    5  A    between atoms: _10  and  _12
REMARK    6  A    between atoms: _12  and  _13
REMARK    7  A    between atoms: _12  and  _15
REMARK    8  A    between atoms: _15  and  _16
REMARK    9  A    between atoms: _16  and  _17
REMARK   10  A    between atoms: _20  and  _22
REMARK   11  A    between atoms: _22  and  _23
REMARK   12  A    between atoms: _22  and  _25
REMARK   13  A    between atoms: _25  and  _26
REMARK   14  A    between atoms: _29  and  _31
REMARK   15  A    between atoms: _31  and  _32
REMARK   16  A    between atoms: _34  and  _36
REMARK   17  A    between atoms: _36  and  _37
REMARK   18  A    between atoms: _36  and  _39
REMARK   19  A    between atoms: _39  and  _40
REMARK   20  A    between atoms: _43  and  _45
REMARK   21  A    between atoms: _45  and  _46
REMARK   22  A    between atoms: _45  and  _48
REMARK   23  A    between atoms: _48  and  _49
REMARK   24  A    between atoms: _54  and  _56
REMARK   25  A    between atoms: _56  and  _57
REMARK   26  A    between atoms: _56  and  _59
REMARK   27  A    between atoms: _59  and  _60
REMARK   28  A    between atoms: _60  and  _61
REMARK   29  A    between atoms: _61  and  _62
REMARK   30  A    between atoms: _62  and  _63
REMARK   31  A    between atoms: _67  and  _69
REMARK   32  A    between atoms: _69  and  _70
REMARK   33  A    between atoms: _69  and  _72
REMARK   34  A    between atoms: _72  and  _73
REMARK   35  A    between atoms: _78  and  _80
REMARK   36  A    between atoms: _80  and  _81
REMARK   37  A    between atoms: _80  and  _83
REMARK   38  A    between atoms: _83  and  _84
REMARK   39  A    between atoms: _84  and  _85
REMARK   40  A    between atoms: _90  and  _92
REMARK   41  A    between atoms: _92  and  _93
REMARK   42  A    between atoms: _92  and  _95
REMARK   43  A    between atoms: _95  and  _96
REMARK   44  A    between atoms: _99  and  _101
REMARK   45  A    between atoms: _101  and  _102
REMARK   46  A    between atoms: _101  and  _104
REMARK   47  A    between atoms: _104  and  _105
REMARK   48  A    between atoms: _110  and  _112
REMARK   49  A    between atoms: _112  and  _113
REMARK   50  A    between atoms: _112  and  _115
REMARK   51  A    between atoms: _115  and  _116
REMARK   52  A    between atoms: _116  and  _117
REMARK   53  A    between atoms: _120  and  _122
REMARK   54  A    between atoms: _122  and  _123
REMARK   55  A    between atoms: _122  and  _125
REMARK   56  A    between atoms: _125  and  _126
REMARK   57  A    between atoms: _130  and  _131
REMARK   58  A    between atoms: _136  and  _138
REMARK   59  A    between atoms: _138  and  _139
REMARK   60  A    between atoms: _141  and  _143
REMARK   61  A    between atoms: _143  and  _144
REMARK   62  A    between atoms: _143  and  _146
REMARK   63  A    between atoms: _146  and  _147
REMARK   64  A    between atoms: _152  and  _154
REMARK   65  A    between atoms: _154  and  _155
REMARK   66  A    between atoms: _158  and  _160
REMARK   67  A    between atoms: _160  and  _161
REMARK   68  A    between atoms: _160  and  _163
REMARK   69  A    between atoms: _166  and  _168
REMARK   70  A    between atoms: _168  and  _169
REMARK   71  A    between atoms: _168  and  _171
REMARK   72  A    between atoms: _171  and  _172
REMARK   73  A    between atoms: _174  and  _176
REMARK   74  A    between atoms: _176  and  _177
REMARK   75  A    between atoms: _176  and  _179
REMARK   76  A    between atoms: _179  and  _180
REMARK   77  A    between atoms: _183  and  _185
REMARK   78  A    between atoms: _185  and  _186
REMARK   79  A    between atoms: _185  and  _188
REMARK   80  A    between atoms: _188  and  _189
REMARK   81  A    between atoms: _192  and  _194
REMARK   82  A    between atoms: _194  and  _195
REMARK   83  A    between atoms: _194  and  _197
REMARK   84  A    between atoms: _197  and  _198
REMARK   85  A    between atoms: _198  and  _199
REMARK   86  A    between atoms: _201  and  _203
REMARK   87  A    between atoms: _203  and  _204
REMARK   88  A    between atoms: _203  and  _206
REMARK   89  A    between atoms: _206  and  _207
REMARK   90  A    between atoms: _207  and  _208
REMARK   91  A    between atoms: _208  and  _209
REMARK   92  A    between atoms: _218  and  _220
REMARK   93  A    between atoms: _220  and  _221
REMARK   94  A    between atoms: _220  and  _223
REMARK   95  A    between atoms: _225  and  _227
REMARK   96  A    between atoms: _227  and  _228
REMARK   97  A    between atoms: _227  and  _230
REMARK   98  A    between atoms: _230  and  _231
REMARK   99  A    between atoms: _233  and  _235
REMARK  100  A    between atoms: _235  and  _236
REMARK  101  A    between atoms: _235  and  _238
REMARK  102  A    between atoms: _238  and  _239
REMARK  103  A    between atoms: _242  and  _244
REMARK  104  A    between atoms: _244  and  _245
REMARK  105  A    between atoms: _244  and  _247
REMARK  106  A    between atoms: _247  and  _248
REMARK  107  A    between atoms: _251  and  _253
REMARK  108  A    between atoms: _253  and  _254
REMARK  109  A    between atoms: _253  and  _256
REMARK  110  A    between atoms: _256  and  _257
REMARK  111  A    between atoms: _263  and  _265
REMARK  112  A    between atoms: _265  and  _266
REMARK  113  A    between atoms: _265  and  _268
REMARK  114  A    between atoms: _268  and  _269
REMARK  115  A    between atoms: _269  and  _270
REMARK  116  A    between atoms: _270  and  _271
REMARK  117  A    between atoms: _271  and  _272
REMARK  118  A    between atoms: _276  and  _278
REMARK  119  A    between atoms: _278  and  _279
REMARK  120  A    between atoms: _278  and  _281
REMARK  121  A    between atoms: _281  and  _282
REMARK  122  A    between atoms: _285  and  _287
REMARK  123  A    between atoms: _287  and  _288
REMARK  124  A    between atoms: _290  and  _292
REMARK  125  A    between atoms: _292  and  _293
REMARK  126  A    between atoms: _292  and  _295
REMARK  127  A    between atoms: _295  and  _296
REMARK  128  A    between atoms: _298  and  _300
REMARK  129  A    between atoms: _300  and  _301
REMARK  130  A    between atoms: _303  and  _305
REMARK  131  A    between atoms: _305  and  _306
REMARK  132  A    between atoms: _305  and  _308
REMARK  133  A    between atoms: _308  and  _309
REMARK  134  A    between atoms: _309  and  _310
REMARK  135  A    between atoms: _313  and  _315
REMARK  136  A    between atoms: _315  and  _316
REMARK  137  A    between atoms: _315  and  _318
REMARK  138  A    between atoms: _320  and  _322
REMARK  139  A    between atoms: _322  and  _323
REMARK  140  A    between atoms: _322  and  _325
REMARK  141  A    between atoms: _325  and  _326
REMARK  142  A    between atoms: _329  and  _331
REMARK  143  A    between atoms: _331  and  _332
REMARK  144  A    between atoms: _331  and  _334
REMARK  145  A    between atoms: _334  and  _335
REMARK  146  A    between atoms: _338  and  _340
REMARK  147  A    between atoms: _340  and  _341
REMARK  148  A    between atoms: _340  and  _343
REMARK  149  A    between atoms: _343  and  _344
REMARK  150  A    between atoms: _346  and  _348
REMARK  151  A    between atoms: _348  and  _349
REMARK  152  A    between atoms: _348  and  _351
REMARK  153  A    between atoms: _351  and  _352
REMARK  154  A    between atoms: _355  and  _357
REMARK  155  A    between atoms: _357  and  _358
REMARK  156  A    between atoms: _360  and  _362
REMARK  157  A    between atoms: _362  and  _363
REMARK  158  A    between atoms: _362  and  _365
REMARK  159  A    between atoms: _365  and  _366
REMARK  160  A    between atoms: _366  and  _367
REMARK  161  A    between atoms: _369  and  _371
REMARK  162  A    between atoms: _371  and  _372
REMARK  163  A    between atoms: _371  and  _374
REMARK  164  A    between atoms: _374  and  _375
REMARK  165  A    between atoms: _380  and  _382
REMARK  166  A    between atoms: _382  and  _383
REMARK  167  A    between atoms: _382  and  _385
REMARK  168  A    between atoms: _385  and  _386
REMARK  169  A    between atoms: _389  and  _391
REMARK  170  A    between atoms: _391  and  _392
REMARK  171  A    between atoms: _391  and  _394
REMARK  172  A    between atoms: _394  and  _395
REMARK  173  A    between atoms: _400  and  _402
REMARK  174  A    between atoms: _402  and  _403
REMARK  175  A    between atoms: _402  and  _405
REMARK  176  A    between atoms: _407  and  _409
REMARK  177  A    between atoms: _409  and  _410
REMARK  178  A    between atoms: _409  and  _412
REMARK  179  A    between atoms: _412  and  _413
REMARK  180  A    between atoms: _416  and  _418
REMARK  181  A    between atoms: _418  and  _419
REMARK  182  A    between atoms: _418  and  _421
REMARK  183  A    between atoms: _421  and  _422
REMARK  184  A    between atoms: _427  and  _429
REMARK  185  A    between atoms: _429  and  _430
REMARK  186  A    between atoms: _429  and  _432
REMARK  187  A    between atoms: _432  and  _433
REMARK  188  A    between atoms: _436  and  _438
REMARK  189  A    between atoms: _438  and  _439
REMARK  190  A    between atoms: _438  and  _441
REMARK  191  A    between atoms: _441  and  _442
REMARK  192  A    between atoms: _447  and  _448
REMARK  193  A    between atoms: _450  and  _452
REMARK  194  A    between atoms: _452  and  _453
REMARK  195  A    between atoms: _452  and  _455
REMARK  196  A    between atoms: _455  and  _456
REMARK  197  A    between atoms: _459  and  _461
REMARK  198  A    between atoms: _461  and  _462
REMARK  199  A    between atoms: _461  and  _464
REMARK  200  A    between atoms: _464  and  _465
REMARK  201  A    between atoms: _467  and  _469
REMARK  202  A    between atoms: _469  and  _470
REMARK  203  A    between atoms: _469  and  _472
REMARK  204  A    between atoms: _472  and  _473
REMARK  205  A    between atoms: _476  and  _478
REMARK  206  A    between atoms: _478  and  _479
REMARK  207  A    between atoms: _478  and  _481
REMARK  208  A    between atoms: _481  and  _482
REMARK  209  A    between atoms: _486  and  MN_638
REMARK  210  A    between atoms: _487  and  _489
REMARK  211  A    between atoms: _489  and  _490
REMARK  212  A    between atoms: _489  and  _492
REMARK  213  A    between atoms: _492  and  _493
REMARK  214  A    between atoms: _493  and  _494
REMARK  215  A    between atoms: _497  and  _499
REMARK  216  A    between atoms: _499  and  _500
REMARK  217  A    between atoms: _499  and  _502
REMARK  218  A    between atoms: _502  and  _503
REMARK  219  A    between atoms: _503  and  _504
REMARK  220  A    between atoms: _504  and  _505
REMARK  221  A    between atoms: _514  and  _516
REMARK  222  A    between atoms: _516  and  _517
REMARK  223  A    between atoms: _516  and  _519
REMARK  224  A    between atoms: _519  and  _520
REMARK  225  A    between atoms: _524  and  MN_638
REMARK  226  A    between atoms: _525  and  _527
REMARK  227  A    between atoms: _527  and  _528
REMARK  228  A    between atoms: _531  and  _532
REMARK  229  A    between atoms: _537  and  _539
REMARK  230  A    between atoms: _539  and  _540
REMARK  231  A    between atoms: _539  and  _542
REMARK  232  A    between atoms: _542  and  _543
REMARK  233  A    between atoms: _546  and  _548
REMARK  234  A    between atoms: _548  and  _549
REMARK  235  A    between atoms: _548  and  _551
REMARK  236  A    between atoms: _551  and  _552
REMARK  237  A    between atoms: _555  and  _557
REMARK  238  A    between atoms: _557  and  _558
REMARK  239  A    between atoms: _557  and  _560
REMARK  240  A    between atoms: _563  and  _564
REMARK  241  A    between atoms: _569  and  _571
REMARK  242  A    between atoms: _571  and  _572
REMARK  243  A    between atoms: _571  and  _574
REMARK  244  A    between atoms: _574  and  _575
REMARK  245  A    between atoms: _578  and  _580
REMARK  246  A    between atoms: _580  and  _581
REMARK  247  A    between atoms: _580  and  _583
REMARK  248  A    between atoms: _583  and  _584
REMARK  249  A    between atoms: _584  and  _585
REMARK  250  A    between atoms: _585  and  _586
REMARK  251  A    between atoms: _586  and  _587
REMARK  252  A    between atoms: _591  and  _593
REMARK  253  A    between atoms: _593  and  _594
REMARK  254  A    between atoms: _593  and  _596
REMARK  255  A    between atoms: _596  and  _597
REMARK  256  A    between atoms: _603  and  _605
REMARK  257  A    between atoms: _605  and  _606
REMARK  258  A    between atoms: _609  and  _611
REMARK  259  A    between atoms: _611  and  _612
REMARK  260  A    between atoms: _611  and  _614
REMARK  261  A    between atoms: _614  and  _615
REMARK  262  A    between atoms: _621  and  _623
REMARK  263  A    between atoms: _623  and  _624
REMARK  264  A    between atoms: _623  and  _626
REMARK  265  A    between atoms: _626  and  _627
REMARK  266  A    between atoms: _627  and  _628
REMARK  267  A    between atoms: _628  and  _629
REMARK                            x       y       z     vdW  Elec       q    Type
REMARK                         _______ _______ _______ _____ _____    ______ ____
ROOT
ATOM      1  O   HOH     1      89.067 -26.507  51.033  0.00  0.00    +0.000 OA
ENDROOT
TORSDOF 0
