REMARK  Name = ../refined-set-2016/4qsv/4qsv_pocket.pdb
REMARK  118 active torsions:
REMARK  status: ('A' for Active; 'I' for Inactive)
REMARK    1  A    between atoms: _1  and  _3
REMARK    2  A    between atoms: _3  and  _4
REMARK    3  A    between atoms: _3  and  _6
REMARK    4  A    between atoms: _6  and  _7
REMARK    5  A    between atoms: _7  and  _8
REMARK    6  A    between atoms: _8  and  _9
REMARK    7  A    between atoms: _18  and  _20
REMARK    8  A    between atoms: _20  and  _21
REMARK    9  A    between atoms: _20  and  _23
REMARK   10  A    between atoms: _26  and  _28
REMARK   11  A    between atoms: _28  and  _29
REMARK   12  A    between atoms: _28  and  _31
REMARK   13  A    between atoms: _31  and  _32
REMARK   14  A    between atoms: _38  and  _40
REMARK   15  A    between atoms: _40  and  _41
REMARK   16  A    between atoms: _40  and  _43
REMARK   17  A    between atoms: _43  and  _44
REMARK   18  A    between atoms: _47  and  _49
REMARK   19  A    between atoms: _49  and  _50
REMARK   20  A    between atoms: _49  and  _52
REMARK   21  A    between atoms: _52  and  _53
REMARK   22  A    between atoms: _53  and  _54
REMARK   23  A    between atoms: _54  and  _55
REMARK   24  A    between atoms: _55  and  _56
REMARK   25  A    between atoms: _61  and  _62
REMARK   26  A    between atoms: _67  and  _69
REMARK   27  A    between atoms: _69  and  _70
REMARK   28  A    between atoms: _69  and  _72
REMARK   29  A    between atoms: _75  and  _77
REMARK   30  A    between atoms: _77  and  _78
REMARK   31  A    between atoms: _77  and  _80
REMARK   32  A    between atoms: _80  and  _81
REMARK   33  A    between atoms: _85  and  _86
REMARK   34  A    between atoms: _91  and  _93
REMARK   35  A    between atoms: _93  and  _94
REMARK   36  A    between atoms: _93  and  _96
REMARK   37  A    between atoms: _96  and  _97
REMARK   38  A    between atoms: _100  and  _102
REMARK   39  A    between atoms: _102  and  _103
REMARK   40  A    between atoms: _102  and  _105
REMARK   41  A    between atoms: _105  and  _106
REMARK   42  A    between atoms: _106  and  _107
REMARK   43  A    between atoms: _110  and  _112
REMARK   44  A    between atoms: _112  and  _113
REMARK   45  A    between atoms: _112  and  _115
REMARK   46  A    between atoms: _118  and  _120
REMARK   47  A    between atoms: _120  and  _121
REMARK   48  A    between atoms: _120  and  _123
REMARK   49  A    between atoms: _123  and  _124
REMARK   50  A    between atoms: _129  and  _130
REMARK   51  A    between atoms: _132  and  _134
REMARK   52  A    between atoms: _134  and  _135
REMARK   53  A    between atoms: _134  and  _137
REMARK   54  A    between atoms: _137  and  _138
REMARK   55  A    between atoms: _141  and  _143
REMARK   56  A    between atoms: _143  and  _144
REMARK   57  A    between atoms: _143  and  _146
REMARK   58  A    between atoms: _146  and  _147
REMARK   59  A    between atoms: _147  and  _148
REMARK   60  A    between atoms: _150  and  _152
REMARK   61  A    between atoms: _152  and  _153
REMARK   62  A    between atoms: _152  and  _155
REMARK   63  A    between atoms: _155  and  _156
REMARK   64  A    between atoms: _159  and  _161
REMARK   65  A    between atoms: _161  and  _162
REMARK   66  A    between atoms: _161  and  _164
REMARK   67  A    between atoms: _164  and  _165
REMARK   68  A    between atoms: _168  and  _170
REMARK   69  A    between atoms: _170  and  _171
REMARK   70  A    between atoms: _170  and  _173
REMARK   71  A    between atoms: _175  and  _177
REMARK   72  A    between atoms: _177  and  _178
REMARK   73  A    between atoms: _177  and  _180
REMARK   74  A    between atoms: _180  and  _181
REMARK   75  A    between atoms: _186  and  _188
REMARK   76  A    between atoms: _188  and  _189
REMARK   77  A    between atoms: _192  and  _194
REMARK   78  A    between atoms: _194  and  _195
REMARK   79  A    between atoms: _194  and  _197
REMARK   80  A    between atoms: _197  and  _198
REMARK   81  A    between atoms: _201  and  _203
REMARK   82  A    between atoms: _203  and  _204
REMARK   83  A    between atoms: _203  and  _206
REMARK   84  A    between atoms: _206  and  _207
REMARK   85  A    between atoms: _207  and  _208
REMARK   86  A    between atoms: _211  and  _213
REMARK   87  A    between atoms: _213  and  _214
REMARK   88  A    between atoms: _213  and  _216
REMARK   89  A    between atoms: _216  and  _217
REMARK   90  A    between atoms: _222  and  _223
REMARK   91  A    between atoms: _225  and  _227
REMARK   92  A    between atoms: _227  and  _228
REMARK   93  A    between atoms: _227  and  _230
REMARK   94  A    between atoms: _230  and  _231
REMARK   95  A    between atoms: _236  and  _238
REMARK   96  A    between atoms: _238  and  _239
REMARK   97  A    between atoms: _241  and  _243
REMARK   98  A    between atoms: _243  and  _244
REMARK   99  A    between atoms: _243  and  _246
REMARK  100  A    between atoms: _246  and  _247
REMARK  101  A    between atoms: _250  and  _252
REMARK  102  A    between atoms: _252  and  _253
REMARK  103  A    between atoms: _252  and  _255
REMARK  104  A    between atoms: _255  and  _256
REMARK  105  A    between atoms: _259  and  _261
REMARK  106  A    between atoms: _261  and  _262
REMARK  107  A    between atoms: _261  and  _264
REMARK  108  A    between atoms: _264  and  _265
REMARK  109  A    between atoms: _265  and  _266
REMARK  110  A    between atoms: _266  and  _267
REMARK  111  A    between atoms: _276  and  _278
REMARK  112  A    between atoms: _278  and  _279
REMARK  113  A    between atoms: _278  and  _281
REMARK  114  A    between atoms: _281  and  _282
REMARK  115  A    between atoms: _282  and  _283
REMARK  116  A    between atoms: _283  and  _284
REMARK  117  A    between atoms: _293  and  _295
REMARK  118  A    between atoms: _295  and  _296
REMARK                            x       y       z     vdW  Elec       q    Type
REMARK                         _______ _______ _______ _____ _____    ______ ____
ROOT
ATOM      1  C   LYS A   5      20.331  50.044  -6.537  0.00  0.00    +0.244 C 
ATOM      2  O   LYS A   5      20.937  49.065  -6.992  0.00  0.00    -0.273 OA
ATOM      3  N   PRO A   6      19.668  50.915  -7.300  0.00  0.00    -0.272 N 
ATOM      4  CD  PRO A   6      18.825  52.040  -6.851  0.00  0.00    +0.094 C 
ATOM      5  CG  PRO A   6      18.147  52.518  -8.095  0.00  0.00    +0.024 C 
ATOM      6  CB  PRO A   6      18.792  51.887  -9.265  0.00  0.00    +0.031 C 
ATOM      7  CA  PRO A   6      19.685  50.747  -8.735  0.00  0.00    +0.152 C 
ENDROOT
BRANCH   7   8
ATOM      8  C   PRO A   6      21.076  50.873  -9.270  0.00  0.00    +0.241 C 
ATOM      9  O   PRO A   6      21.919  51.479  -8.639  0.00  0.00    -0.273 OA
ATOM     10  N   VAL A   7      21.314  50.289 -10.433  0.00  0.00    -0.297 N 
ATOM     11  H   VAL A   7      20.567  49.713 -10.871  0.00  0.00    +0.150 HD
BRANCH  10  12
ATOM     12  CA  VAL A   7      22.598  50.430 -11.120  0.00  0.00    +0.149 C 
BRANCH  12  13
ATOM     13  C   VAL A   7      22.753  51.851 -11.716  0.00  0.00    +0.241 C 
ATOM     14  N   ASP A   8      23.913  52.463 -11.481  0.00  0.00    -0.297 N 
ATOM     15  H   ASP A   8      24.624  51.972 -10.902  0.00  0.00    +0.150 HD
ATOM     16  O   VAL A   7      21.837  52.371 -12.376  0.00  0.00    -0.273 OA
BRANCH  14  17
ATOM     17  CA  ASP A   8      24.239  53.812 -12.007  0.00  0.00    +0.160 C 
BRANCH  17  18
ATOM     18  C   ASP A   8      24.539  53.784 -13.522  0.00  0.00    +0.244 C 
ATOM     19  O   ASP A   8      25.545  53.184 -13.946  0.00  0.00    -0.273 OA
ATOM     20  N   PRO A   9      23.678  54.436 -14.335  0.00  0.00    -0.272 N 
ATOM     21  CD  PRO A   9      22.476  55.184 -13.913  0.00  0.00    +0.094 C 
ATOM     22  CG  PRO A   9      21.878  55.670 -15.205  0.00  0.00    +0.024 C 
ATOM     23  CB  PRO A   9      22.994  55.707 -16.195  0.00  0.00    +0.031 C 
ATOM     24  CA  PRO A   9      23.891  54.532 -15.789  0.00  0.00    +0.152 C 
BRANCH  24  25
ATOM     25  C   PRO A   9      25.347  54.814 -16.199  0.00  0.00    +0.241 C 
ATOM     26  N   ASP A  10      25.939  55.852 -15.608  0.00  0.00    -0.297 N 
ATOM     27  H   ASP A  10      25.436  56.344 -14.842  0.00  0.00    +0.150 HD
ATOM     28  O   PRO A   9      25.911  54.084 -17.017  0.00  0.00    -0.273 OA
BRANCH  26  29
ATOM     29  CA  ASP A  10      27.273  56.328 -15.996  0.00  0.00    +0.160 C 
BRANCH  29  30
ATOM     30  C   ASP A  10      28.258  55.193 -15.881  0.00  0.00    +0.241 C 
ATOM     31  N   GLU A  11      28.180  54.496 -14.759  0.00  0.00    -0.297 N 
ATOM     32  H   GLU A  11      27.464  54.749 -14.048  0.00  0.00    +0.150 HD
ATOM     33  O   ASP A  10      29.059  54.949 -16.778  0.00  0.00    -0.273 OA
BRANCH  31  34
ATOM     34  CA  GLU A  11      29.072  53.391 -14.506  0.00  0.00    +0.149 C 
BRANCH  34  35
ATOM     35  C   GLU A  11      28.747  52.202 -15.407  0.00  0.00    +0.241 C 
ATOM     36  N   VAL A  12      27.452  51.958 -15.666  0.00  0.00    -0.298 N 
ATOM     37  H   VAL A  12      26.730  52.606 -15.292  0.00  0.00    +0.150 HD
ATOM     38  O   GLU A  11      29.668  51.517 -15.863  0.00  0.00    -0.273 OA
BRANCH  36  39
ATOM     39  CA  VAL A  12      27.025  50.790 -16.470  0.00  0.00    +0.137 C 
BRANCH  39  40
ATOM     40  CB  VAL A  12      26.484  49.663 -15.562  0.00  0.00    +0.026 C 
ATOM     41  CG2 VAL A  12      27.220  49.645 -14.233  0.00  0.00    +0.002 C 
ATOM     42  CG1 VAL A  12      26.629  48.312 -16.238  0.00  0.00    +0.002 C 
ENDBRANCH  39  40
BRANCH  39  43
ATOM     43  C   VAL A  12      25.988  51.148 -17.556  0.00  0.00    +0.227 C 
ATOM     44  O   VAL A  12      24.790  50.889 -17.403  0.00  0.00    -0.286 OA
ENDBRANCH  39  43
ENDBRANCH  36  39
ENDBRANCH  34  35
BRANCH  34  45
ATOM     45  CB  GLU A  11      28.995  52.986 -13.042  0.00  0.00    +0.041 C 
BRANCH  45  46
ATOM     46  CG  GLU A  11      29.358  54.108 -12.092  0.00  0.00    +0.116 C 
BRANCH  46  47
ATOM     47  CD  GLU A  11      29.304  53.647 -10.664  0.00  0.00    +0.365 C 
ATOM     48  OE2 GLU A  11      28.311  53.953  -9.971  0.00  0.00    -0.246 OA
ATOM     49  OE1 GLU A  11      30.260  52.961 -10.252  0.00  0.00    -0.246 OA
ENDBRANCH  46  47
ENDBRANCH  45  46
ENDBRANCH  34  45
ENDBRANCH  31  34
ENDBRANCH  29  30
BRANCH  29  50
ATOM     50  CB  ASP A  10      27.749  57.476 -15.095  0.00  0.00    +0.143 C 
BRANCH  50  51
ATOM     51  CG  ASP A  10      26.657  58.481 -14.798  0.00  0.00    +0.367 C 
ATOM     52  OD2 ASP A  10      26.301  58.629 -13.607  0.00  0.00    -0.246 OA
ATOM     53  OD1 ASP A  10      26.149  59.106 -15.753  0.00  0.00    -0.246 OA
ENDBRANCH  50  51
ENDBRANCH  29  50
ENDBRANCH  26  29
ENDBRANCH  24  25
ENDBRANCH  17  18
BRANCH  17  54
ATOM     54  CB  ASP A   8      25.449  54.396 -11.250  0.00  0.00    +0.143 C 
BRANCH  54  55
ATOM     55  CG  ASP A   8      25.796  55.830 -11.678  0.00  0.00    +0.367 C 
ATOM     56  OD2 ASP A   8      24.872  56.669 -11.797  0.00  0.00    -0.246 OA
ATOM     57  OD1 ASP A   8      27.001  56.115 -11.881  0.00  0.00    -0.246 OA
ENDBRANCH  54  55
ENDBRANCH  17  54
ENDBRANCH  14  17
ENDBRANCH  12  13
BRANCH  12  58
ATOM     58  CB  VAL A   7      22.743  49.383 -12.243  0.00  0.00    +0.027 C 
ATOM     59  CG2 VAL A   7      22.571  47.966 -11.696  0.00  0.00    +0.002 C 
ATOM     60  CG1 VAL A   7      24.091  49.530 -12.940  0.00  0.00    +0.002 C 
ENDBRANCH  12  58
ENDBRANCH  10  12
ENDBRANCH   7   8
BRANCH   1  61
ATOM     61  CA  LYS A   5      20.362  50.363  -5.076  0.00  0.00    +0.149 C 
BRANCH  61  64
ATOM     62  C   THR A   4      19.983  48.900  -3.186  0.00  0.00    +0.243 C 
ATOM     63  O   THR A   4      19.053  49.581  -2.743  0.00  0.00    -0.273 OA
ATOM     64  N   LYS A   5      20.607  49.146  -4.311  0.00  0.00    -0.297 N 
ATOM     65  H   LYS A   5      21.296  48.454  -4.669  0.00  0.00    +0.150 HD
BRANCH  62  66
ATOM     66  CA  THR A   4      20.433  47.681  -2.441  0.00  0.00    +0.176 C 
BRANCH  66  68
ATOM     67  C   PHE A   3      20.558  45.838  -4.013  0.00  0.00    +0.241 C 
ATOM     68  N   THR A   4      21.192  46.734  -3.257  0.00  0.00    -0.295 N 
ATOM     69  H   THR A   4      22.232  46.760  -3.247  0.00  0.00    +0.150 HD
ATOM     70  O   PHE A   3      19.342  45.821  -4.127  0.00  0.00    -0.273 OA
BRANCH  67  71
ATOM     71  CA  PHE A   3      21.391  44.779  -4.730  0.00  0.00    +0.153 C 
BRANCH  71  73
ATOM     72  C   VAL A   2      23.694  45.499  -5.148  0.00  0.00    +0.241 C 
ATOM     73  N   PHE A   3      22.835  44.811  -4.403  0.00  0.00    -0.297 N 
ATOM     74  H   PHE A   3      23.183  44.286  -3.576  0.00  0.00    +0.150 HD
ATOM     75  O   VAL A   2      23.366  46.136  -6.142  0.00  0.00    -0.273 OA
BRANCH  72  76
ATOM     76  CA  VAL A   2      25.153  45.522  -4.682  0.00  0.00    +0.148 C 
BRANCH  76  79
ATOM     77  C   ARG A   1      24.766  46.023  -2.342  0.00  0.00    +0.238 C 
ATOM     78  O   ARG A   1      24.165  47.067  -2.584  0.00  0.00    -0.274 OA
ATOM     79  N   VAL A   2      25.295  45.256  -3.281  0.00  0.00    -0.297 N 
ATOM     80  H   VAL A   2      25.840  44.420  -2.989  0.00  0.00    +0.150 HD
BRANCH  77  81
ATOM     81  CA  ARG A   1      24.998  45.572  -0.929  0.00  0.00    +0.145 C 
BRANCH  81  82
ATOM     82  N   ARG A   1      24.873  44.144  -0.721  0.00  0.00    -0.238 NA
ATOM     83  H   ARG A   1      25.659  43.622  -0.284  0.00  0.00    +0.142 HD
ENDBRANCH  81  82
BRANCH  81  84
ATOM     84  CB  ARG A   1      26.408  46.052  -0.474  0.00  0.00    +0.030 C 
BRANCH  84  85
ATOM     85  CG  ARG A   1      26.616  47.536  -0.581  0.00  0.00    +0.045 C 
BRANCH  85  86
ATOM     86  CD  ARG A   1      27.923  47.967   0.095  0.00  0.00    +0.174 C 
BRANCH  86  87
ATOM     87  NE  ARG A   1      28.046  49.431   0.159  0.00  0.00    -0.265 N 
ATOM     88  CZ  ARG A   1      27.289  50.240   0.915  0.00  0.00    +0.342 C 
ATOM     89  NH2 ARG A   1      26.318  49.760   1.703  0.00  0.00    -0.292 N 
ATOM     90 HH21 ARG A   1      25.746  50.411   2.279  0.00  0.00    +0.255 HD
ATOM     91 HH22 ARG A   1      26.136  48.737   1.739  0.00  0.00    +0.255 HD
ATOM     92  NH1 ARG A   1      27.502  51.557   0.880  0.00  0.00    -0.292 N 
ATOM     93 HH11 ARG A   1      26.921  52.193   1.462  0.00  0.00    +0.255 HD
ATOM     94 HH12 ARG A   1      28.249  51.947   0.271  0.00  0.00    +0.255 HD
ATOM     95  HE  ARG A   1      28.779  49.875  -0.430  0.00  0.00    +0.259 HD
ENDBRANCH  86  87
ENDBRANCH  85  86
ENDBRANCH  84  85
ENDBRANCH  81  84
ENDBRANCH  77  81
ENDBRANCH  76  79
BRANCH  76  96
ATOM     96  CB  VAL A   2      26.003  44.522  -5.519  0.00  0.00    +0.027 C 
ATOM     97  CG2 VAL A   2      25.486  43.111  -5.413  0.00  0.00    +0.002 C 
ATOM     98  CG1 VAL A   2      26.088  44.968  -6.950  0.00  0.00    +0.002 C 
ENDBRANCH  76  96
ENDBRANCH  72  76
ENDBRANCH  71  73
BRANCH  71  99
ATOM     99  CB  PHE A   3      20.836  43.380  -4.441  0.00  0.00    +0.055 C 
BRANCH  99 100
ATOM    100  CG  PHE A   3      21.665  42.271  -5.065  0.00  0.00    -0.020 A 
ATOM    101  CD2 PHE A   3      22.275  41.313  -4.283  0.00  0.00    -0.004 A 
ATOM    102  CE2 PHE A   3      23.076  40.322  -4.874  0.00  0.00    -0.000 A 
ATOM    103  CZ  PHE A   3      23.255  40.290  -6.251  0.00  0.00    -0.000 A 
ATOM    104  CE1 PHE A   3      22.646  41.259  -7.032  0.00  0.00    -0.000 A 
ATOM    105  CD1 PHE A   3      21.856  42.228  -6.428  0.00  0.00    -0.004 A 
ENDBRANCH  99 100
ENDBRANCH  71  99
ENDBRANCH  67  71
ENDBRANCH  66  68
BRANCH  66 106
ATOM    106  CB  THR A   4      21.178  48.135  -1.196  0.00  0.00    +0.137 C 
ATOM    107  CG2 THR A   4      21.317  46.969  -0.325  0.00  0.00    +0.034 C 
BRANCH 106 108
ATOM    108  OG1 THR A   4      22.469  48.641  -1.547  0.00  0.00    -0.382 OA
ATOM    109  HG1 THR A   4      22.991  47.929  -1.995  0.00  0.00    +0.210 HD
ENDBRANCH 106 108
ENDBRANCH  66 106
ENDBRANCH  62  66
ENDBRANCH  61  64
BRANCH  61 110
ATOM    110  CB  LYS A   5      21.504  51.398  -4.883  0.00  0.00    +0.029 C 
BRANCH 110 111
ATOM    111  CG  LYS A   5      21.654  51.937  -3.476  0.00  0.00    +0.000 C 
BRANCH 111 112
ATOM    112  CD  LYS A   5      20.588  52.968  -3.123  0.00  0.00    -0.024 C 
BRANCH 112 113
ATOM    113  CE  LYS A   5      20.472  53.175  -1.612  0.00  0.00    -0.086 C 
BRANCH 113 114
ATOM    114  NZ  LYS A   5      19.078  53.577  -1.242  0.00  0.00    +0.380 N 
ATOM    115  HZ1 LYS A   5      19.019  53.713  -0.213  0.00  0.00    -0.089 HD
ATOM    116  HZ2 LYS A   5      18.415  52.831  -1.533  0.00  0.00    -0.089 HD
ATOM    117  HZ3 LYS A   5      18.835  54.466  -1.725  0.00  0.00    -0.089 HD
ENDBRANCH 113 114
ENDBRANCH 112 113
ENDBRANCH 111 112
ENDBRANCH 110 111
ENDBRANCH  61 110
ENDBRANCH   1  61
TORSDOF 45
REMARK  Name = ../refined-set-2016/4qsv/4qsv_pocket.pdb
REMARK  118 active torsions:
REMARK  status: ('A' for Active; 'I' for Inactive)
REMARK    1  A    between atoms: _1  and  _3
REMARK    2  A    between atoms: _3  and  _4
REMARK    3  A    between atoms: _3  and  _6
REMARK    4  A    between atoms: _6  and  _7
REMARK    5  A    between atoms: _7  and  _8
REMARK    6  A    between atoms: _8  and  _9
REMARK    7  A    between atoms: _18  and  _20
REMARK    8  A    between atoms: _20  and  _21
REMARK    9  A    between atoms: _20  and  _23
REMARK   10  A    between atoms: _26  and  _28
REMARK   11  A    between atoms: _28  and  _29
REMARK   12  A    between atoms: _28  and  _31
REMARK   13  A    between atoms: _31  and  _32
REMARK   14  A    between atoms: _38  and  _40
REMARK   15  A    between atoms: _40  and  _41
REMARK   16  A    between atoms: _40  and  _43
REMARK   17  A    between atoms: _43  and  _44
REMARK   18  A    between atoms: _47  and  _49
REMARK   19  A    between atoms: _49  and  _50
REMARK   20  A    between atoms: _49  and  _52
REMARK   21  A    between atoms: _52  and  _53
REMARK   22  A    between atoms: _53  and  _54
REMARK   23  A    between atoms: _54  and  _55
REMARK   24  A    between atoms: _55  and  _56
REMARK   25  A    between atoms: _61  and  _62
REMARK   26  A    between atoms: _67  and  _69
REMARK   27  A    between atoms: _69  and  _70
REMARK   28  A    between atoms: _69  and  _72
REMARK   29  A    between atoms: _75  and  _77
REMARK   30  A    between atoms: _77  and  _78
REMARK   31  A    between atoms: _77  and  _80
REMARK   32  A    between atoms: _80  and  _81
REMARK   33  A    between atoms: _85  and  _86
REMARK   34  A    between atoms: _91  and  _93
REMARK   35  A    between atoms: _93  and  _94
REMARK   36  A    between atoms: _93  and  _96
REMARK   37  A    between atoms: _96  and  _97
REMARK   38  A    between atoms: _100  and  _102
REMARK   39  A    between atoms: _102  and  _103
REMARK   40  A    between atoms: _102  and  _105
REMARK   41  A    between atoms: _105  and  _106
REMARK   42  A    between atoms: _106  and  _107
REMARK   43  A    between atoms: _110  and  _112
REMARK   44  A    between atoms: _112  and  _113
REMARK   45  A    between atoms: _112  and  _115
REMARK   46  A    between atoms: _118  and  _120
REMARK   47  A    between atoms: _120  and  _121
REMARK   48  A    between atoms: _120  and  _123
REMARK   49  A    between atoms: _123  and  _124
REMARK   50  A    between atoms: _129  and  _130
REMARK   51  A    between atoms: _132  and  _134
REMARK   52  A    between atoms: _134  and  _135
REMARK   53  A    between atoms: _134  and  _137
REMARK   54  A    between atoms: _137  and  _138
REMARK   55  A    between atoms: _141  and  _143
REMARK   56  A    between atoms: _143  and  _144
REMARK   57  A    between atoms: _143  and  _146
REMARK   58  A    between atoms: _146  and  _147
REMARK   59  A    between atoms: _147  and  _148
REMARK   60  A    between atoms: _150  and  _152
REMARK   61  A    between atoms: _152  and  _153
REMARK   62  A    between atoms: _152  and  _155
REMARK   63  A    between atoms: _155  and  _156
REMARK   64  A    between atoms: _159  and  _161
REMARK   65  A    between atoms: _161  and  _162
REMARK   66  A    between atoms: _161  and  _164
REMARK   67  A    between atoms: _164  and  _165
REMARK   68  A    between atoms: _168  and  _170
REMARK   69  A    between atoms: _170  and  _171
REMARK   70  A    between atoms: _170  and  _173
REMARK   71  A    between atoms: _175  and  _177
REMARK   72  A    between atoms: _177  and  _178
REMARK   73  A    between atoms: _177  and  _180
REMARK   74  A    between atoms: _180  and  _181
REMARK   75  A    between atoms: _186  and  _188
REMARK   76  A    between atoms: _188  and  _189
REMARK   77  A    between atoms: _192  and  _194
REMARK   78  A    between atoms: _194  and  _195
REMARK   79  A    between atoms: _194  and  _197
REMARK   80  A    between atoms: _197  and  _198
REMARK   81  A    between atoms: _201  and  _203
REMARK   82  A    between atoms: _203  and  _204
REMARK   83  A    between atoms: _203  and  _206
REMARK   84  A    between atoms: _206  and  _207
REMARK   85  A    between atoms: _207  and  _208
REMARK   86  A    between atoms: _211  and  _213
REMARK   87  A    between atoms: _213  and  _214
REMARK   88  A    between atoms: _213  and  _216
REMARK   89  A    between atoms: _216  and  _217
REMARK   90  A    between atoms: _222  and  _223
REMARK   91  A    between atoms: _225  and  _227
REMARK   92  A    between atoms: _227  and  _228
REMARK   93  A    between atoms: _227  and  _230
REMARK   94  A    between atoms: _230  and  _231
REMARK   95  A    between atoms: _236  and  _238
REMARK   96  A    between atoms: _238  and  _239
REMARK   97  A    between atoms: _241  and  _243
REMARK   98  A    between atoms: _243  and  _244
REMARK   99  A    between atoms: _243  and  _246
REMARK  100  A    between atoms: _246  and  _247
REMARK  101  A    between atoms: _250  and  _252
REMARK  102  A    between atoms: _252  and  _253
REMARK  103  A    between atoms: _252  and  _255
REMARK  104  A    between atoms: _255  and  _256
REMARK  105  A    between atoms: _259  and  _261
REMARK  106  A    between atoms: _261  and  _262
REMARK  107  A    between atoms: _261  and  _264
REMARK  108  A    between atoms: _264  and  _265
REMARK  109  A    between atoms: _265  and  _266
REMARK  110  A    between atoms: _266  and  _267
REMARK  111  A    between atoms: _276  and  _278
REMARK  112  A    between atoms: _278  and  _279
REMARK  113  A    between atoms: _278  and  _281
REMARK  114  A    between atoms: _281  and  _282
REMARK  115  A    between atoms: _282  and  _283
REMARK  116  A    between atoms: _283  and  _284
REMARK  117  A    between atoms: _293  and  _295
REMARK  118  A    between atoms: _295  and  _296
REMARK                            x       y       z     vdW  Elec       q    Type
REMARK                         _______ _______ _______ _____ _____    ______ ____
ROOT
ATOM      1  CG  TYR A   1      22.171  47.152 -15.777  0.00  0.00    -0.020 A 
ATOM      2  CD2 TYR A   1      20.886  47.427 -15.333  0.00  0.00    -0.001 A 
ATOM      3  CE2 TYR A   1      20.228  46.566 -14.445  0.00  0.00    +0.036 A 
ATOM      4  CZ  TYR A   1      20.864  45.408 -14.010  0.00  0.00    +0.134 A 
ATOM      5  CE1 TYR A   1      22.139  45.102 -14.462  0.00  0.00    +0.036 A 
ATOM      6  CD1 TYR A   1      22.784  45.969 -15.344  0.00  0.00    -0.001 A 
ENDROOT
BRANCH   4   7
ATOM      7  OH  TYR A   1      20.218  44.546 -13.188  0.00  0.00    -0.506 OA
ATOM      8  HH  TYR A   1      19.327  44.913 -12.961  0.00  0.00    +0.292 HD
ENDBRANCH   4   7
BRANCH   1   9
ATOM      9  CB  TYR A   1      22.877  48.069 -16.745  0.00  0.00    +0.051 C 
BRANCH   9  10
ATOM     10  CA  TYR A   1      22.674  47.636 -18.201  0.00  0.00    +0.137 C 
BRANCH  10  11
ATOM     11  N   TYR A   1      23.473  48.454 -19.118  0.00  0.00    -0.239 NA
ATOM     12  H   TYR A   1      23.931  49.321 -18.773  0.00  0.00    +0.142 HD
ENDBRANCH  10  11
BRANCH  10  13
ATOM     13  C   TYR A   1      21.213  47.756 -18.587  0.00  0.00    +0.224 C 
ATOM     14  O   TYR A   1      20.528  46.765 -18.791  0.00  0.00    -0.287 OA
ENDBRANCH  10  13
ENDBRANCH   9  10
ENDBRANCH   1   9
TORSDOF 5
REMARK  Name = ../refined-set-2016/4qsv/4qsv_pocket.pdb
REMARK  118 active torsions:
REMARK  status: ('A' for Active; 'I' for Inactive)
REMARK    1  A    between atoms: _1  and  _3
REMARK    2  A    between atoms: _3  and  _4
REMARK    3  A    between atoms: _3  and  _6
REMARK    4  A    between atoms: _6  and  _7
REMARK    5  A    between atoms: _7  and  _8
REMARK    6  A    between atoms: _8  and  _9
REMARK    7  A    between atoms: _18  and  _20
REMARK    8  A    between atoms: _20  and  _21
REMARK    9  A    between atoms: _20  and  _23
REMARK   10  A    between atoms: _26  and  _28
REMARK   11  A    between atoms: _28  and  _29
REMARK   12  A    between atoms: _28  and  _31
REMARK   13  A    between atoms: _31  and  _32
REMARK   14  A    between atoms: _38  and  _40
REMARK   15  A    between atoms: _40  and  _41
REMARK   16  A    between atoms: _40  and  _43
REMARK   17  A    between atoms: _43  and  _44
REMARK   18  A    between atoms: _47  and  _49
REMARK   19  A    between atoms: _49  and  _50
REMARK   20  A    between atoms: _49  and  _52
REMARK   21  A    between atoms: _52  and  _53
REMARK   22  A    between atoms: _53  and  _54
REMARK   23  A    between atoms: _54  and  _55
REMARK   24  A    between atoms: _55  and  _56
REMARK   25  A    between atoms: _61  and  _62
REMARK   26  A    between atoms: _67  and  _69
REMARK   27  A    between atoms: _69  and  _70
REMARK   28  A    between atoms: _69  and  _72
REMARK   29  A    between atoms: _75  and  _77
REMARK   30  A    between atoms: _77  and  _78
REMARK   31  A    between atoms: _77  and  _80
REMARK   32  A    between atoms: _80  and  _81
REMARK   33  A    between atoms: _85  and  _86
REMARK   34  A    between atoms: _91  and  _93
REMARK   35  A    between atoms: _93  and  _94
REMARK   36  A    between atoms: _93  and  _96
REMARK   37  A    between atoms: _96  and  _97
REMARK   38  A    between atoms: _100  and  _102
REMARK   39  A    between atoms: _102  and  _103
REMARK   40  A    between atoms: _102  and  _105
REMARK   41  A    between atoms: _105  and  _106
REMARK   42  A    between atoms: _106  and  _107
REMARK   43  A    between atoms: _110  and  _112
REMARK   44  A    between atoms: _112  and  _113
REMARK   45  A    between atoms: _112  and  _115
REMARK   46  A    between atoms: _118  and  _120
REMARK   47  A    between atoms: _120  and  _121
REMARK   48  A    between atoms: _120  and  _123
REMARK   49  A    between atoms: _123  and  _124
REMARK   50  A    between atoms: _129  and  _130
REMARK   51  A    between atoms: _132  and  _134
REMARK   52  A    between atoms: _134  and  _135
REMARK   53  A    between atoms: _134  and  _137
REMARK   54  A    between atoms: _137  and  _138
REMARK   55  A    between atoms: _141  and  _143
REMARK   56  A    between atoms: _143  and  _144
REMARK   57  A    between atoms: _143  and  _146
REMARK   58  A    between atoms: _146  and  _147
REMARK   59  A    between atoms: _147  and  _148
REMARK   60  A    between atoms: _150  and  _152
REMARK   61  A    between atoms: _152  and  _153
REMARK   62  A    between atoms: _152  and  _155
REMARK   63  A    between atoms: _155  and  _156
REMARK   64  A    between atoms: _159  and  _161
REMARK   65  A    between atoms: _161  and  _162
REMARK   66  A    between atoms: _161  and  _164
REMARK   67  A    between atoms: _164  and  _165
REMARK   68  A    between atoms: _168  and  _170
REMARK   69  A    between atoms: _170  and  _171
REMARK   70  A    between atoms: _170  and  _173
REMARK   71  A    between atoms: _175  and  _177
REMARK   72  A    between atoms: _177  and  _178
REMARK   73  A    between atoms: _177  and  _180
REMARK   74  A    between atoms: _180  and  _181
REMARK   75  A    between atoms: _186  and  _188
REMARK   76  A    between atoms: _188  and  _189
REMARK   77  A    between atoms: _192  and  _194
REMARK   78  A    between atoms: _194  and  _195
REMARK   79  A    between atoms: _194  and  _197
REMARK   80  A    between atoms: _197  and  _198
REMARK   81  A    between atoms: _201  and  _203
REMARK   82  A    between atoms: _203  and  _204
REMARK   83  A    between atoms: _203  and  _206
REMARK   84  A    between atoms: _206  and  _207
REMARK   85  A    between atoms: _207  and  _208
REMARK   86  A    between atoms: _211  and  _213
REMARK   87  A    between atoms: _213  and  _214
REMARK   88  A    between atoms: _213  and  _216
REMARK   89  A    between atoms: _216  and  _217
REMARK   90  A    between atoms: _222  and  _223
REMARK   91  A    between atoms: _225  and  _227
REMARK   92  A    between atoms: _227  and  _228
REMARK   93  A    between atoms: _227  and  _230
REMARK   94  A    between atoms: _230  and  _231
REMARK   95  A    between atoms: _236  and  _238
REMARK   96  A    between atoms: _238  and  _239
REMARK   97  A    between atoms: _241  and  _243
REMARK   98  A    between atoms: _243  and  _244
REMARK   99  A    between atoms: _243  and  _246
REMARK  100  A    between atoms: _246  and  _247
REMARK  101  A    between atoms: _250  and  _252
REMARK  102  A    between atoms: _252  and  _253
REMARK  103  A    between atoms: _252  and  _255
REMARK  104  A    between atoms: _255  and  _256
REMARK  105  A    between atoms: _259  and  _261
REMARK  106  A    between atoms: _261  and  _262
REMARK  107  A    between atoms: _261  and  _264
REMARK  108  A    between atoms: _264  and  _265
REMARK  109  A    between atoms: _265  and  _266
REMARK  110  A    between atoms: _266  and  _267
REMARK  111  A    between atoms: _276  and  _278
REMARK  112  A    between atoms: _278  and  _279
REMARK  113  A    between atoms: _278  and  _281
REMARK  114  A    between atoms: _281  and  _282
REMARK  115  A    between atoms: _282  and  _283
REMARK  116  A    between atoms: _283  and  _284
REMARK  117  A    between atoms: _293  and  _295
REMARK  118  A    between atoms: _295  and  _296
REMARK                            x       y       z     vdW  Elec       q    Type
REMARK                         _______ _______ _______ _____ _____    ______ ____
ROOT
ATOM      1  CA  ILE A   1      18.004  44.500 -18.388  0.00  0.00    +0.133 C 
ENDROOT
BRANCH   1   2
ATOM      2  N   ILE A   1      18.896  44.807 -19.513  0.00  0.00    -0.239 NA
ATOM      3  H   ILE A   1      19.366  45.734 -19.550  0.00  0.00    +0.142 HD
ENDBRANCH   1   2
BRANCH   1   4
ATOM      4  CB  ILE A   1      18.721  44.599 -17.008  0.00  0.00    +0.023 C 
ATOM      5  CG2 ILE A   1      17.728  44.492 -15.849  0.00  0.00    +0.002 C 
BRANCH   4   6
ATOM      6  CG1 ILE A   1      19.837  43.526 -16.890  0.00  0.00    +0.002 C 
ATOM      7  CD1 ILE A   1      19.382  42.076 -16.982  0.00  0.00    +0.000 C 
ENDBRANCH   4   6
ENDBRANCH   1   4
BRANCH   1   8
ATOM      8  C   ILE A   1      16.808  45.438 -18.444  0.00  0.00    +0.224 C 
ATOM      9  O   ILE A   1      16.885  46.598 -18.039  0.00  0.00    -0.287 OA
ENDBRANCH   1   8
TORSDOF 4
REMARK  Name = ../refined-set-2016/4qsv/4qsv_pocket.pdb
REMARK  118 active torsions:
REMARK  status: ('A' for Active; 'I' for Inactive)
REMARK    1  A    between atoms: _1  and  _3
REMARK    2  A    between atoms: _3  and  _4
REMARK    3  A    between atoms: _3  and  _6
REMARK    4  A    between atoms: _6  and  _7
REMARK    5  A    between atoms: _7  and  _8
REMARK    6  A    between atoms: _8  and  _9
REMARK    7  A    between atoms: _18  and  _20
REMARK    8  A    between atoms: _20  and  _21
REMARK    9  A    between atoms: _20  and  _23
REMARK   10  A    between atoms: _26  and  _28
REMARK   11  A    between atoms: _28  and  _29
REMARK   12  A    between atoms: _28  and  _31
REMARK   13  A    between atoms: _31  and  _32
REMARK   14  A    between atoms: _38  and  _40
REMARK   15  A    between atoms: _40  and  _41
REMARK   16  A    between atoms: _40  and  _43
REMARK   17  A    between atoms: _43  and  _44
REMARK   18  A    between atoms: _47  and  _49
REMARK   19  A    between atoms: _49  and  _50
REMARK   20  A    between atoms: _49  and  _52
REMARK   21  A    between atoms: _52  and  _53
REMARK   22  A    between atoms: _53  and  _54
REMARK   23  A    between atoms: _54  and  _55
REMARK   24  A    between atoms: _55  and  _56
REMARK   25  A    between atoms: _61  and  _62
REMARK   26  A    between atoms: _67  and  _69
REMARK   27  A    between atoms: _69  and  _70
REMARK   28  A    between atoms: _69  and  _72
REMARK   29  A    between atoms: _75  and  _77
REMARK   30  A    between atoms: _77  and  _78
REMARK   31  A    between atoms: _77  and  _80
REMARK   32  A    between atoms: _80  and  _81
REMARK   33  A    between atoms: _85  and  _86
REMARK   34  A    between atoms: _91  and  _93
REMARK   35  A    between atoms: _93  and  _94
REMARK   36  A    between atoms: _93  and  _96
REMARK   37  A    between atoms: _96  and  _97
REMARK   38  A    between atoms: _100  and  _102
REMARK   39  A    between atoms: _102  and  _103
REMARK   40  A    between atoms: _102  and  _105
REMARK   41  A    between atoms: _105  and  _106
REMARK   42  A    between atoms: _106  and  _107
REMARK   43  A    between atoms: _110  and  _112
REMARK   44  A    between atoms: _112  and  _113
REMARK   45  A    between atoms: _112  and  _115
REMARK   46  A    between atoms: _118  and  _120
REMARK   47  A    between atoms: _120  and  _121
REMARK   48  A    between atoms: _120  and  _123
REMARK   49  A    between atoms: _123  and  _124
REMARK   50  A    between atoms: _129  and  _130
REMARK   51  A    between atoms: _132  and  _134
REMARK   52  A    between atoms: _134  and  _135
REMARK   53  A    between atoms: _134  and  _137
REMARK   54  A    between atoms: _137  and  _138
REMARK   55  A    between atoms: _141  and  _143
REMARK   56  A    between atoms: _143  and  _144
REMARK   57  A    between atoms: _143  and  _146
REMARK   58  A    between atoms: _146  and  _147
REMARK   59  A    between atoms: _147  and  _148
REMARK   60  A    between atoms: _150  and  _152
REMARK   61  A    between atoms: _152  and  _153
REMARK   62  A    between atoms: _152  and  _155
REMARK   63  A    between atoms: _155  and  _156
REMARK   64  A    between atoms: _159  and  _161
REMARK   65  A    between atoms: _161  and  _162
REMARK   66  A    between atoms: _161  and  _164
REMARK   67  A    between atoms: _164  and  _165
REMARK   68  A    between atoms: _168  and  _170
REMARK   69  A    between atoms: _170  and  _171
REMARK   70  A    between atoms: _170  and  _173
REMARK   71  A    between atoms: _175  and  _177
REMARK   72  A    between atoms: _177  and  _178
REMARK   73  A    between atoms: _177  and  _180
REMARK   74  A    between atoms: _180  and  _181
REMARK   75  A    between atoms: _186  and  _188
REMARK   76  A    between atoms: _188  and  _189
REMARK   77  A    between atoms: _192  and  _194
REMARK   78  A    between atoms: _194  and  _195
REMARK   79  A    between atoms: _194  and  _197
REMARK   80  A    between atoms: _197  and  _198
REMARK   81  A    between atoms: _201  and  _203
REMARK   82  A    between atoms: _203  and  _204
REMARK   83  A    between atoms: _203  and  _206
REMARK   84  A    between atoms: _206  and  _207
REMARK   85  A    between atoms: _207  and  _208
REMARK   86  A    between atoms: _211  and  _213
REMARK   87  A    between atoms: _213  and  _214
REMARK   88  A    between atoms: _213  and  _216
REMARK   89  A    between atoms: _216  and  _217
REMARK   90  A    between atoms: _222  and  _223
REMARK   91  A    between atoms: _225  and  _227
REMARK   92  A    between atoms: _227  and  _228
REMARK   93  A    between atoms: _227  and  _230
REMARK   94  A    between atoms: _230  and  _231
REMARK   95  A    between atoms: _236  and  _238
REMARK   96  A    between atoms: _238  and  _239
REMARK   97  A    between atoms: _241  and  _243
REMARK   98  A    between atoms: _243  and  _244
REMARK   99  A    between atoms: _243  and  _246
REMARK  100  A    between atoms: _246  and  _247
REMARK  101  A    between atoms: _250  and  _252
REMARK  102  A    between atoms: _252  and  _253
REMARK  103  A    between atoms: _252  and  _255
REMARK  104  A    between atoms: _255  and  _256
REMARK  105  A    between atoms: _259  and  _261
REMARK  106  A    between atoms: _261  and  _262
REMARK  107  A    between atoms: _261  and  _264
REMARK  108  A    between atoms: _264  and  _265
REMARK  109  A    between atoms: _265  and  _266
REMARK  110  A    between atoms: _266  and  _267
REMARK  111  A    between atoms: _276  and  _278
REMARK  112  A    between atoms: _278  and  _279
REMARK  113  A    between atoms: _278  and  _281
REMARK  114  A    between atoms: _281  and  _282
REMARK  115  A    between atoms: _282  and  _283
REMARK  116  A    between atoms: _283  and  _284
REMARK  117  A    between atoms: _293  and  _295
REMARK  118  A    between atoms: _295  and  _296
REMARK                            x       y       z     vdW  Elec       q    Type
REMARK                         _______ _______ _______ _____ _____    ______ ____
ROOT
ATOM      1  C   MET A   1      16.027  45.664  -8.537  0.00  0.00    +0.238 C 
ATOM      2  N   ASP A   2      15.753  46.275  -7.393  0.00  0.00    -0.298 N 
ATOM      3  H   ASP A   2      14.830  46.742  -7.286  0.00  0.00    +0.150 HD
ATOM      4  O   MET A   1      17.109  45.128  -8.829  0.00  0.00    -0.274 OA
ENDROOT
BRANCH   1   5
ATOM      5  CA  MET A   1      14.911  45.697  -9.563  0.00  0.00    +0.146 C 
BRANCH   5   6
ATOM      6  N   MET A   1      15.541  45.780 -10.852  0.00  0.00    -0.238 NA
ATOM      7  H   MET A   1      16.465  45.329 -11.010  0.00  0.00    +0.142 HD
ENDBRANCH   5   6
BRANCH   5   8
ATOM      8  CB  MET A   1      14.025  44.460  -9.453  0.00  0.00    +0.038 C 
BRANCH   8   9
ATOM      9  CG  MET A   1      13.133  44.429  -8.223  0.00  0.00    +0.060 C 
BRANCH   9  10
ATOM     10  SD  MET A   1      12.128  45.866  -7.832  0.00  0.00    -0.139 S 
ATOM     11  CE  MET A   1      11.222  46.101  -9.364  0.00  0.00    +0.069 C 
ENDBRANCH   9  10
ENDBRANCH   8   9
ENDBRANCH   5   8
ENDBRANCH   1   5
BRANCH   2  12
ATOM     12  CA  ASP A   2      16.700  46.320  -6.270  0.00  0.00    +0.148 C 
BRANCH  12  13
ATOM     13  C   ASP A   2      15.909  46.518  -4.975  0.00  0.00    +0.227 C 
ATOM     14  O   ASP A   2      14.691  46.787  -5.014  0.00  0.00    -0.286 OA
ENDBRANCH  12  13
BRANCH  12  15
ATOM     15  CB  ASP A   2      17.674  47.480  -6.503  0.00  0.00    +0.142 C 
BRANCH  15  16
ATOM     16  CG  ASP A   2      16.975  48.817  -6.389  0.00  0.00    +0.367 C 
ATOM     17  OD2 ASP A   2      16.942  49.352  -5.290  0.00  0.00    -0.246 OA
ATOM     18  OD1 ASP A   2      16.379  49.282  -7.366  0.00  0.00    -0.246 OA
ENDBRANCH  15  16
ENDBRANCH  12  15
ENDBRANCH   2  12
TORSDOF 9
REMARK  Name = ../refined-set-2016/4qsv/4qsv_pocket.pdb
REMARK  118 active torsions:
REMARK  status: ('A' for Active; 'I' for Inactive)
REMARK    1  A    between atoms: _1  and  _3
REMARK    2  A    between atoms: _3  and  _4
REMARK    3  A    between atoms: _3  and  _6
REMARK    4  A    between atoms: _6  and  _7
REMARK    5  A    between atoms: _7  and  _8
REMARK    6  A    between atoms: _8  and  _9
REMARK    7  A    between atoms: _18  and  _20
REMARK    8  A    between atoms: _20  and  _21
REMARK    9  A    between atoms: _20  and  _23
REMARK   10  A    between atoms: _26  and  _28
REMARK   11  A    between atoms: _28  and  _29
REMARK   12  A    between atoms: _28  and  _31
REMARK   13  A    between atoms: _31  and  _32
REMARK   14  A    between atoms: _38  and  _40
REMARK   15  A    between atoms: _40  and  _41
REMARK   16  A    between atoms: _40  and  _43
REMARK   17  A    between atoms: _43  and  _44
REMARK   18  A    between atoms: _47  and  _49
REMARK   19  A    between atoms: _49  and  _50
REMARK   20  A    between atoms: _49  and  _52
REMARK   21  A    between atoms: _52  and  _53
REMARK   22  A    between atoms: _53  and  _54
REMARK   23  A    between atoms: _54  and  _55
REMARK   24  A    between atoms: _55  and  _56
REMARK   25  A    between atoms: _61  and  _62
REMARK   26  A    between atoms: _67  and  _69
REMARK   27  A    between atoms: _69  and  _70
REMARK   28  A    between atoms: _69  and  _72
REMARK   29  A    between atoms: _75  and  _77
REMARK   30  A    between atoms: _77  and  _78
REMARK   31  A    between atoms: _77  and  _80
REMARK   32  A    between atoms: _80  and  _81
REMARK   33  A    between atoms: _85  and  _86
REMARK   34  A    between atoms: _91  and  _93
REMARK   35  A    between atoms: _93  and  _94
REMARK   36  A    between atoms: _93  and  _96
REMARK   37  A    between atoms: _96  and  _97
REMARK   38  A    between atoms: _100  and  _102
REMARK   39  A    between atoms: _102  and  _103
REMARK   40  A    between atoms: _102  and  _105
REMARK   41  A    between atoms: _105  and  _106
REMARK   42  A    between atoms: _106  and  _107
REMARK   43  A    between atoms: _110  and  _112
REMARK   44  A    between atoms: _112  and  _113
REMARK   45  A    between atoms: _112  and  _115
REMARK   46  A    between atoms: _118  and  _120
REMARK   47  A    between atoms: _120  and  _121
REMARK   48  A    between atoms: _120  and  _123
REMARK   49  A    between atoms: _123  and  _124
REMARK   50  A    between atoms: _129  and  _130
REMARK   51  A    between atoms: _132  and  _134
REMARK   52  A    between atoms: _134  and  _135
REMARK   53  A    between atoms: _134  and  _137
REMARK   54  A    between atoms: _137  and  _138
REMARK   55  A    between atoms: _141  and  _143
REMARK   56  A    between atoms: _143  and  _144
REMARK   57  A    between atoms: _143  and  _146
REMARK   58  A    between atoms: _146  and  _147
REMARK   59  A    between atoms: _147  and  _148
REMARK   60  A    between atoms: _150  and  _152
REMARK   61  A    between atoms: _152  and  _153
REMARK   62  A    between atoms: _152  and  _155
REMARK   63  A    between atoms: _155  and  _156
REMARK   64  A    between atoms: _159  and  _161
REMARK   65  A    between atoms: _161  and  _162
REMARK   66  A    between atoms: _161  and  _164
REMARK   67  A    between atoms: _164  and  _165
REMARK   68  A    between atoms: _168  and  _170
REMARK   69  A    between atoms: _170  and  _171
REMARK   70  A    between atoms: _170  and  _173
REMARK   71  A    between atoms: _175  and  _177
REMARK   72  A    between atoms: _177  and  _178
REMARK   73  A    between atoms: _177  and  _180
REMARK   74  A    between atoms: _180  and  _181
REMARK   75  A    between atoms: _186  and  _188
REMARK   76  A    between atoms: _188  and  _189
REMARK   77  A    between atoms: _192  and  _194
REMARK   78  A    between atoms: _194  and  _195
REMARK   79  A    between atoms: _194  and  _197
REMARK   80  A    between atoms: _197  and  _198
REMARK   81  A    between atoms: _201  and  _203
REMARK   82  A    between atoms: _203  and  _204
REMARK   83  A    between atoms: _203  and  _206
REMARK   84  A    between atoms: _206  and  _207
REMARK   85  A    between atoms: _207  and  _208
REMARK   86  A    between atoms: _211  and  _213
REMARK   87  A    between atoms: _213  and  _214
REMARK   88  A    between atoms: _213  and  _216
REMARK   89  A    between atoms: _216  and  _217
REMARK   90  A    between atoms: _222  and  _223
REMARK   91  A    between atoms: _225  and  _227
REMARK   92  A    between atoms: _227  and  _228
REMARK   93  A    between atoms: _227  and  _230
REMARK   94  A    between atoms: _230  and  _231
REMARK   95  A    between atoms: _236  and  _238
REMARK   96  A    between atoms: _238  and  _239
REMARK   97  A    between atoms: _241  and  _243
REMARK   98  A    between atoms: _243  and  _244
REMARK   99  A    between atoms: _243  and  _246
REMARK  100  A    between atoms: _246  and  _247
REMARK  101  A    between atoms: _250  and  _252
REMARK  102  A    between atoms: _252  and  _253
REMARK  103  A    between atoms: _252  and  _255
REMARK  104  A    between atoms: _255  and  _256
REMARK  105  A    between atoms: _259  and  _261
REMARK  106  A    between atoms: _261  and  _262
REMARK  107  A    between atoms: _261  and  _264
REMARK  108  A    between atoms: _264  and  _265
REMARK  109  A    between atoms: _265  and  _266
REMARK  110  A    between atoms: _266  and  _267
REMARK  111  A    between atoms: _276  and  _278
REMARK  112  A    between atoms: _278  and  _279
REMARK  113  A    between atoms: _278  and  _281
REMARK  114  A    between atoms: _281  and  _282
REMARK  115  A    between atoms: _282  and  _283
REMARK  116  A    between atoms: _283  and  _284
REMARK  117  A    between atoms: _293  and  _295
REMARK  118  A    between atoms: _295  and  _296
REMARK                            x       y       z     vdW  Elec       q    Type
REMARK                         _______ _______ _______ _____ _____    ______ ____
ROOT
ATOM      1  C   ILE A   1      17.749  39.759  -8.954  0.00  0.00    +0.238 C 
ATOM      2  N   CYS A   2      17.445  38.525  -8.591  0.00  0.00    -0.298 N 
ATOM      3  H   CYS A   2      16.534  38.346  -8.123  0.00  0.00    +0.150 HD
ATOM      4  O   ILE A   1      18.824  40.051  -9.527  0.00  0.00    -0.274 OA
ENDROOT
BRANCH   1   5
ATOM      5  CA  ILE A   1      16.721  40.814  -8.603  0.00  0.00    +0.145 C 
BRANCH   5   6
ATOM      6  N   ILE A   1      15.380  40.355  -9.006  0.00  0.00    -0.238 NA
ATOM      7  H   ILE A   1      14.606  40.346  -8.312  0.00  0.00    +0.142 HD
ENDBRANCH   5   6
BRANCH   5   8
ATOM      8  CB  ILE A   1      16.752  41.155  -7.088  0.00  0.00    +0.025 C 
ATOM      9  CG2 ILE A   1      18.198  41.446  -6.655  0.00  0.00    +0.002 C 
BRANCH   8  10
ATOM     10  CG1 ILE A   1      15.823  42.352  -6.812  0.00  0.00    +0.002 C 
ATOM     11  CD1 ILE A   1      15.771  42.793  -5.360  0.00  0.00    +0.000 C 
ENDBRANCH   8  10
ENDBRANCH   5   8
ENDBRANCH   1   5
BRANCH   2  12
ATOM     12  CA  CYS A   2      18.336  37.427  -8.824  0.00  0.00    +0.149 C 
BRANCH  12  13
ATOM     13  CB  CYS A   2      17.976  36.235  -7.969  0.00  0.00    +0.096 C 
ATOM     14  SG  CYS A   2      19.060  34.801  -8.182  0.00  0.00    -0.080 S 
ENDBRANCH  12  13
BRANCH  12  15
ATOM     15  C   CYS A   2      18.503  37.074 -10.306  0.00  0.00    +0.228 C 
ATOM     16  O   CYS A   2      19.646  36.958 -10.787  0.00  0.00    -0.286 OA
ENDBRANCH  12  15
ENDBRANCH   2  12
TORSDOF 7
REMARK  Name = ../refined-set-2016/4qsv/4qsv_pocket.pdb
REMARK  118 active torsions:
REMARK  status: ('A' for Active; 'I' for Inactive)
REMARK    1  A    between atoms: _1  and  _3
REMARK    2  A    between atoms: _3  and  _4
REMARK    3  A    between atoms: _3  and  _6
REMARK    4  A    between atoms: _6  and  _7
REMARK    5  A    between atoms: _7  and  _8
REMARK    6  A    between atoms: _8  and  _9
REMARK    7  A    between atoms: _18  and  _20
REMARK    8  A    between atoms: _20  and  _21
REMARK    9  A    between atoms: _20  and  _23
REMARK   10  A    between atoms: _26  and  _28
REMARK   11  A    between atoms: _28  and  _29
REMARK   12  A    between atoms: _28  and  _31
REMARK   13  A    between atoms: _31  and  _32
REMARK   14  A    between atoms: _38  and  _40
REMARK   15  A    between atoms: _40  and  _41
REMARK   16  A    between atoms: _40  and  _43
REMARK   17  A    between atoms: _43  and  _44
REMARK   18  A    between atoms: _47  and  _49
REMARK   19  A    between atoms: _49  and  _50
REMARK   20  A    between atoms: _49  and  _52
REMARK   21  A    between atoms: _52  and  _53
REMARK   22  A    between atoms: _53  and  _54
REMARK   23  A    between atoms: _54  and  _55
REMARK   24  A    between atoms: _55  and  _56
REMARK   25  A    between atoms: _61  and  _62
REMARK   26  A    between atoms: _67  and  _69
REMARK   27  A    between atoms: _69  and  _70
REMARK   28  A    between atoms: _69  and  _72
REMARK   29  A    between atoms: _75  and  _77
REMARK   30  A    between atoms: _77  and  _78
REMARK   31  A    between atoms: _77  and  _80
REMARK   32  A    between atoms: _80  and  _81
REMARK   33  A    between atoms: _85  and  _86
REMARK   34  A    between atoms: _91  and  _93
REMARK   35  A    between atoms: _93  and  _94
REMARK   36  A    between atoms: _93  and  _96
REMARK   37  A    between atoms: _96  and  _97
REMARK   38  A    between atoms: _100  and  _102
REMARK   39  A    between atoms: _102  and  _103
REMARK   40  A    between atoms: _102  and  _105
REMARK   41  A    between atoms: _105  and  _106
REMARK   42  A    between atoms: _106  and  _107
REMARK   43  A    between atoms: _110  and  _112
REMARK   44  A    between atoms: _112  and  _113
REMARK   45  A    between atoms: _112  and  _115
REMARK   46  A    between atoms: _118  and  _120
REMARK   47  A    between atoms: _120  and  _121
REMARK   48  A    between atoms: _120  and  _123
REMARK   49  A    between atoms: _123  and  _124
REMARK   50  A    between atoms: _129  and  _130
REMARK   51  A    between atoms: _132  and  _134
REMARK   52  A    between atoms: _134  and  _135
REMARK   53  A    between atoms: _134  and  _137
REMARK   54  A    between atoms: _137  and  _138
REMARK   55  A    between atoms: _141  and  _143
REMARK   56  A    between atoms: _143  and  _144
REMARK   57  A    between atoms: _143  and  _146
REMARK   58  A    between atoms: _146  and  _147
REMARK   59  A    between atoms: _147  and  _148
REMARK   60  A    between atoms: _150  and  _152
REMARK   61  A    between atoms: _152  and  _153
REMARK   62  A    between atoms: _152  and  _155
REMARK   63  A    between atoms: _155  and  _156
REMARK   64  A    between atoms: _159  and  _161
REMARK   65  A    between atoms: _161  and  _162
REMARK   66  A    between atoms: _161  and  _164
REMARK   67  A    between atoms: _164  and  _165
REMARK   68  A    between atoms: _168  and  _170
REMARK   69  A    between atoms: _170  and  _171
REMARK   70  A    between atoms: _170  and  _173
REMARK   71  A    between atoms: _175  and  _177
REMARK   72  A    between atoms: _177  and  _178
REMARK   73  A    between atoms: _177  and  _180
REMARK   74  A    between atoms: _180  and  _181
REMARK   75  A    between atoms: _186  and  _188
REMARK   76  A    between atoms: _188  and  _189
REMARK   77  A    between atoms: _192  and  _194
REMARK   78  A    between atoms: _194  and  _195
REMARK   79  A    between atoms: _194  and  _197
REMARK   80  A    between atoms: _197  and  _198
REMARK   81  A    between atoms: _201  and  _203
REMARK   82  A    between atoms: _203  and  _204
REMARK   83  A    between atoms: _203  and  _206
REMARK   84  A    between atoms: _206  and  _207
REMARK   85  A    between atoms: _207  and  _208
REMARK   86  A    between atoms: _211  and  _213
REMARK   87  A    between atoms: _213  and  _214
REMARK   88  A    between atoms: _213  and  _216
REMARK   89  A    between atoms: _216  and  _217
REMARK   90  A    between atoms: _222  and  _223
REMARK   91  A    between atoms: _225  and  _227
REMARK   92  A    between atoms: _227  and  _228
REMARK   93  A    between atoms: _227  and  _230
REMARK   94  A    between atoms: _230  and  _231
REMARK   95  A    between atoms: _236  and  _238
REMARK   96  A    between atoms: _238  and  _239
REMARK   97  A    between atoms: _241  and  _243
REMARK   98  A    between atoms: _243  and  _244
REMARK   99  A    between atoms: _243  and  _246
REMARK  100  A    between atoms: _246  and  _247
REMARK  101  A    between atoms: _250  and  _252
REMARK  102  A    between atoms: _252  and  _253
REMARK  103  A    between atoms: _252  and  _255
REMARK  104  A    between atoms: _255  and  _256
REMARK  105  A    between atoms: _259  and  _261
REMARK  106  A    between atoms: _261  and  _262
REMARK  107  A    between atoms: _261  and  _264
REMARK  108  A    between atoms: _264  and  _265
REMARK  109  A    between atoms: _265  and  _266
REMARK  110  A    between atoms: _266  and  _267
REMARK  111  A    between atoms: _276  and  _278
REMARK  112  A    between atoms: _278  and  _279
REMARK  113  A    between atoms: _278  and  _281
REMARK  114  A    between atoms: _281  and  _282
REMARK  115  A    between atoms: _282  and  _283
REMARK  116  A    between atoms: _283  and  _284
REMARK  117  A    between atoms: _293  and  _295
REMARK  118  A    between atoms: _295  and  _296
REMARK                            x       y       z     vdW  Elec       q    Type
REMARK                         _______ _______ _______ _____ _____    ______ ____
ROOT
ATOM      1  CA  GLU A   4      21.517  37.327 -16.957  0.00  0.00    +0.149 C 
ENDROOT
BRANCH   1   2
ATOM      2  C   GLU A   4      22.611  38.318 -17.324  0.00  0.00    +0.241 C 
ATOM      3  N   TYR A   5      22.763  39.358 -16.519  0.00  0.00    -0.297 N 
ATOM      4  H   TYR A   5      22.201  39.422 -15.647  0.00  0.00    +0.150 HD
ATOM      5  O   GLU A   4      23.295  38.147 -18.316  0.00  0.00    -0.273 OA
BRANCH   3   6
ATOM      6  CA  TYR A   5      23.706  40.407 -16.844  0.00  0.00    +0.153 C 
BRANCH   6   7
ATOM      7  C   TYR A   5      25.204  40.058 -16.560  0.00  0.00    +0.241 C 
ATOM      8  N   ASN A   6      25.442  39.119 -15.643  0.00  0.00    -0.298 N 
ATOM      9  H   ASN A   6      24.631  38.668 -15.175  0.00  0.00    +0.150 HD
ATOM     10  O   TYR A   5      26.116  40.653 -17.166  0.00  0.00    -0.273 OA
BRANCH   8  11
ATOM     11  CA  ASN A   6      26.792  38.693 -15.264  0.00  0.00    +0.146 C 
BRANCH  11  12
ATOM     12  C   ASN A   6      26.967  37.193 -15.486  0.00  0.00    +0.227 C 
ATOM     13  O   ASN A   6      27.037  36.424 -14.526  0.00  0.00    -0.286 OA
ENDBRANCH  11  12
BRANCH  11  14
ATOM     14  CB  ASN A   6      27.050  39.022 -13.789  0.00  0.00    +0.112 C 
BRANCH  14  15
ATOM     15  CG  ASN A   6      26.683  40.453 -13.435  0.00  0.00    +0.222 C 
ATOM     16  ND2 ASN A   6      25.515  40.618 -12.885  0.00  0.00    -0.329 N 
ATOM     17 HD21 ASN A   6      25.216  41.564 -12.573  0.00  0.00    +0.145 HD
ATOM     18 HD22 ASN A   6      24.881  39.804 -12.757  0.00  0.00    +0.145 HD
ATOM     19  OD1 ASN A   6      27.468  41.381 -13.608  0.00  0.00    -0.275 OA
ENDBRANCH  14  15
ENDBRANCH  11  14
ENDBRANCH   8  11
ENDBRANCH   6   7
BRANCH   6  20
ATOM     20  CB  TYR A   5      23.324  41.681 -16.085  0.00  0.00    +0.055 C 
BRANCH  20  21
ATOM     21  CG  TYR A   5      24.196  42.839 -16.518  0.00  0.00    -0.020 A 
ATOM     22  CD2 TYR A   5      25.253  43.282 -15.723  0.00  0.00    -0.001 A 
ATOM     23  CE2 TYR A   5      26.080  44.305 -16.129  0.00  0.00    +0.036 A 
ATOM     24  CZ  TYR A   5      25.854  44.903 -17.360  0.00  0.00    +0.134 A 
ATOM     25  CE1 TYR A   5      24.812  44.474 -18.171  0.00  0.00    +0.036 A 
ATOM     26  CD1 TYR A   5      23.994  43.444 -17.743  0.00  0.00    -0.001 A 
BRANCH  24  27
ATOM     27  OH  TYR A   5      26.664  45.936 -17.808  0.00  0.00    -0.506 OA
ATOM     28  HH  TYR A   5      26.353  46.235 -18.699  0.00  0.00    +0.292 HD
ENDBRANCH  24  27
ENDBRANCH  20  21
ENDBRANCH   6  20
ENDBRANCH   3   6
ENDBRANCH   1   2
BRANCH   1  30
ATOM     29  C   LEU A   3      22.512  36.225 -15.017  0.00  0.00    +0.241 C 
ATOM     30  N   GLU A   4      21.555  36.978 -15.534  0.00  0.00    -0.297 N 
ATOM     31  H   GLU A   4      20.804  37.335 -14.909  0.00  0.00    +0.150 HD
ATOM     32  O   LEU A   3      23.492  35.846 -15.670  0.00  0.00    -0.273 OA
BRANCH  29  33
ATOM     33  CA  LEU A   3      22.422  35.934 -13.517  0.00  0.00    +0.149 C 
BRANCH  33  35
ATOM     34  C   ALA A   2      22.614  38.194 -12.694  0.00  0.00    +0.241 C 
ATOM     35  N   LEU A   3      21.899  37.084 -12.777  0.00  0.00    -0.297 N 
ATOM     36  H   LEU A   3      20.968  37.028 -12.318  0.00  0.00    +0.150 HD
ATOM     37  O   ALA A   2      23.724  38.292 -13.188  0.00  0.00    -0.273 OA
BRANCH  34  38
ATOM     38  CA  ALA A   2      22.010  39.375 -11.935  0.00  0.00    +0.149 C 
ATOM     39  CB  ALA A   2      22.282  39.278 -10.439  0.00  0.00    +0.031 C 
BRANCH  38  41
ATOM     40  C   ASN A   1      20.154  39.770 -13.440  0.00  0.00    +0.239 C 
ATOM     41  N   ALA A   2      20.585  39.475 -12.215  0.00  0.00    -0.297 N 
ATOM     42  H   ALA A   2      19.897  39.315 -11.451  0.00  0.00    +0.150 HD
ATOM     43  O   ASN A   1      20.927  39.957 -14.403  0.00  0.00    -0.274 OA
BRANCH  40  44
ATOM     44  CA  ASN A   1      18.637  39.979 -13.583  0.00  0.00    +0.154 C 
BRANCH  44  45
ATOM     45  N   ASN A   1      17.949  38.918 -12.899  0.00  0.00    -0.238 NA
ATOM     46  H   ASN A   1      17.262  39.132 -12.148  0.00  0.00    +0.142 HD
ENDBRANCH  44  45
BRANCH  44  47
ATOM     47  CB  ASN A   1      18.195  41.377 -13.105  0.00  0.00    +0.111 C 
BRANCH  47  48
ATOM     48  CG  ASN A   1      16.820  41.786 -13.635  0.00  0.00    +0.221 C 
ATOM     49  ND2 ASN A   1      16.253  42.822 -13.057  0.00  0.00    -0.329 N 
ATOM     50 HD21 ASN A   1      16.754  43.336 -12.304  0.00  0.00    +0.145 HD
ATOM     51 HD22 ASN A   1      15.304  43.127 -13.353  0.00  0.00    +0.145 HD
ATOM     52  OD1 ASN A   1      16.273  41.148 -14.525  0.00  0.00    -0.275 OA
ENDBRANCH  47  48
ENDBRANCH  44  47
ENDBRANCH  40  44
ENDBRANCH  38  41
ENDBRANCH  34  38
ENDBRANCH  33  35
BRANCH  33  53
ATOM     53  CB  LEU A   3      21.594  34.701 -13.243  0.00  0.00    +0.029 C 
BRANCH  53  54
ATOM     54  CG  LEU A   3      21.333  34.259 -11.807  0.00  0.00    +0.002 C 
ATOM     55  CD2 LEU A   3      22.552  34.267 -10.913  0.00  0.00    +0.000 C 
ATOM     56  CD1 LEU A   3      20.696  32.864 -11.790  0.00  0.00    +0.000 C 
ENDBRANCH  53  54
ENDBRANCH  33  53
ENDBRANCH  29  33
ENDBRANCH   1  30
BRANCH   1  57
ATOM     57  CB  GLU A   4      20.140  37.893 -17.352  0.00  0.00    +0.041 C 
BRANCH  57  58
ATOM     58  CG  GLU A   4      19.041  36.845 -17.373  0.00  0.00    +0.116 C 
BRANCH  58  59
ATOM     59  CD  GLU A   4      17.639  37.432 -17.360  0.00  0.00    +0.365 C 
ATOM     60  OE2 GLU A   4      16.711  36.698 -17.007  0.00  0.00    -0.246 OA
ATOM     61  OE1 GLU A   4      17.471  38.618 -17.712  0.00  0.00    -0.246 OA
ENDBRANCH  58  59
ENDBRANCH  57  58
ENDBRANCH   1  57
TORSDOF 24
REMARK  Name = ../refined-set-2016/4qsv/4qsv_pocket.pdb
REMARK  118 active torsions:
REMARK  status: ('A' for Active; 'I' for Inactive)
REMARK    1  A    between atoms: _1  and  _3
REMARK    2  A    between atoms: _3  and  _4
REMARK    3  A    between atoms: _3  and  _6
REMARK    4  A    between atoms: _6  and  _7
REMARK    5  A    between atoms: _7  and  _8
REMARK    6  A    between atoms: _8  and  _9
REMARK    7  A    between atoms: _18  and  _20
REMARK    8  A    between atoms: _20  and  _21
REMARK    9  A    between atoms: _20  and  _23
REMARK   10  A    between atoms: _26  and  _28
REMARK   11  A    between atoms: _28  and  _29
REMARK   12  A    between atoms: _28  and  _31
REMARK   13  A    between atoms: _31  and  _32
REMARK   14  A    between atoms: _38  and  _40
REMARK   15  A    between atoms: _40  and  _41
REMARK   16  A    between atoms: _40  and  _43
REMARK   17  A    between atoms: _43  and  _44
REMARK   18  A    between atoms: _47  and  _49
REMARK   19  A    between atoms: _49  and  _50
REMARK   20  A    between atoms: _49  and  _52
REMARK   21  A    between atoms: _52  and  _53
REMARK   22  A    between atoms: _53  and  _54
REMARK   23  A    between atoms: _54  and  _55
REMARK   24  A    between atoms: _55  and  _56
REMARK   25  A    between atoms: _61  and  _62
REMARK   26  A    between atoms: _67  and  _69
REMARK   27  A    between atoms: _69  and  _70
REMARK   28  A    between atoms: _69  and  _72
REMARK   29  A    between atoms: _75  and  _77
REMARK   30  A    between atoms: _77  and  _78
REMARK   31  A    between atoms: _77  and  _80
REMARK   32  A    between atoms: _80  and  _81
REMARK   33  A    between atoms: _85  and  _86
REMARK   34  A    between atoms: _91  and  _93
REMARK   35  A    between atoms: _93  and  _94
REMARK   36  A    between atoms: _93  and  _96
REMARK   37  A    between atoms: _96  and  _97
REMARK   38  A    between atoms: _100  and  _102
REMARK   39  A    between atoms: _102  and  _103
REMARK   40  A    between atoms: _102  and  _105
REMARK   41  A    between atoms: _105  and  _106
REMARK   42  A    between atoms: _106  and  _107
REMARK   43  A    between atoms: _110  and  _112
REMARK   44  A    between atoms: _112  and  _113
REMARK   45  A    between atoms: _112  and  _115
REMARK   46  A    between atoms: _118  and  _120
REMARK   47  A    between atoms: _120  and  _121
REMARK   48  A    between atoms: _120  and  _123
REMARK   49  A    between atoms: _123  and  _124
REMARK   50  A    between atoms: _129  and  _130
REMARK   51  A    between atoms: _132  and  _134
REMARK   52  A    between atoms: _134  and  _135
REMARK   53  A    between atoms: _134  and  _137
REMARK   54  A    between atoms: _137  and  _138
REMARK   55  A    between atoms: _141  and  _143
REMARK   56  A    between atoms: _143  and  _144
REMARK   57  A    between atoms: _143  and  _146
REMARK   58  A    between atoms: _146  and  _147
REMARK   59  A    between atoms: _147  and  _148
REMARK   60  A    between atoms: _150  and  _152
REMARK   61  A    between atoms: _152  and  _153
REMARK   62  A    between atoms: _152  and  _155
REMARK   63  A    between atoms: _155  and  _156
REMARK   64  A    between atoms: _159  and  _161
REMARK   65  A    between atoms: _161  and  _162
REMARK   66  A    between atoms: _161  and  _164
REMARK   67  A    between atoms: _164  and  _165
REMARK   68  A    between atoms: _168  and  _170
REMARK   69  A    between atoms: _170  and  _171
REMARK   70  A    between atoms: _170  and  _173
REMARK   71  A    between atoms: _175  and  _177
REMARK   72  A    between atoms: _177  and  _178
REMARK   73  A    between atoms: _177  and  _180
REMARK   74  A    between atoms: _180  and  _181
REMARK   75  A    between atoms: _186  and  _188
REMARK   76  A    between atoms: _188  and  _189
REMARK   77  A    between atoms: _192  and  _194
REMARK   78  A    between atoms: _194  and  _195
REMARK   79  A    between atoms: _194  and  _197
REMARK   80  A    between atoms: _197  and  _198
REMARK   81  A    between atoms: _201  and  _203
REMARK   82  A    between atoms: _203  and  _204
REMARK   83  A    between atoms: _203  and  _206
REMARK   84  A    between atoms: _206  and  _207
REMARK   85  A    between atoms: _207  and  _208
REMARK   86  A    between atoms: _211  and  _213
REMARK   87  A    between atoms: _213  and  _214
REMARK   88  A    between atoms: _213  and  _216
REMARK   89  A    between atoms: _216  and  _217
REMARK   90  A    between atoms: _222  and  _223
REMARK   91  A    between atoms: _225  and  _227
REMARK   92  A    between atoms: _227  and  _228
REMARK   93  A    between atoms: _227  and  _230
REMARK   94  A    between atoms: _230  and  _231
REMARK   95  A    between atoms: _236  and  _238
REMARK   96  A    between atoms: _238  and  _239
REMARK   97  A    between atoms: _241  and  _243
REMARK   98  A    between atoms: _243  and  _244
REMARK   99  A    between atoms: _243  and  _246
REMARK  100  A    between atoms: _246  and  _247
REMARK  101  A    between atoms: _250  and  _252
REMARK  102  A    between atoms: _252  and  _253
REMARK  103  A    between atoms: _252  and  _255
REMARK  104  A    between atoms: _255  and  _256
REMARK  105  A    between atoms: _259  and  _261
REMARK  106  A    between atoms: _261  and  _262
REMARK  107  A    between atoms: _261  and  _264
REMARK  108  A    between atoms: _264  and  _265
REMARK  109  A    between atoms: _265  and  _266
REMARK  110  A    between atoms: _266  and  _267
REMARK  111  A    between atoms: _276  and  _278
REMARK  112  A    between atoms: _278  and  _279
REMARK  113  A    between atoms: _278  and  _281
REMARK  114  A    between atoms: _281  and  _282
REMARK  115  A    between atoms: _282  and  _283
REMARK  116  A    between atoms: _283  and  _284
REMARK  117  A    between atoms: _293  and  _295
REMARK  118  A    between atoms: _295  and  _296
REMARK                            x       y       z     vdW  Elec       q    Type
REMARK                         _______ _______ _______ _____ _____    ______ ____
ROOT
ATOM      1  C   GLY A   1      32.198  38.682 -10.868  0.00  0.00    +0.240 C 
ATOM      2  O   GLY A   1      31.330  38.900 -10.018  0.00  0.00    -0.274 OA
ATOM      3  N   ASP A   2      31.968  38.065 -12.040  0.00  0.00    -0.298 N 
ATOM      4  H   ASP A   2      32.748  37.977 -12.722  0.00  0.00    +0.150 HD
ENDROOT
BRANCH   1   5
ATOM      5  CA  GLY A   1      33.653  39.073 -10.575  0.00  0.00    +0.169 C 
BRANCH   5   6
ATOM      6  N   GLY A   1      34.589  38.027 -10.969  0.00  0.00    -0.236 NA
ATOM      7  H   GLY A   1      35.292  38.200 -11.716  0.00  0.00    +0.142 HD
ENDBRANCH   5   6
ENDBRANCH   1   5
BRANCH   3   8
ATOM      8  CA  ASP A   2      30.651  37.510 -12.391  0.00  0.00    +0.148 C 
BRANCH   8   9
ATOM      9  C   ASP A   2      30.293  36.382 -11.456  0.00  0.00    +0.227 C 
ATOM     10  O   ASP A   2      29.176  36.366 -10.945  0.00  0.00    -0.286 OA
ENDBRANCH   8   9
BRANCH   8  11
ATOM     11  CB  ASP A   2      30.555  37.013 -13.838  0.00  0.00    +0.142 C 
BRANCH  11  12
ATOM     12  CG  ASP A   2      30.414  38.156 -14.842  0.00  0.00    +0.367 C 
ATOM     13  OD2 ASP A   2      30.824  39.286 -14.526  0.00  0.00    -0.246 OA
ATOM     14  OD1 ASP A   2      29.859  37.923 -15.947  0.00  0.00    -0.246 OA
ENDBRANCH  11  12
ENDBRANCH   8  11
ENDBRANCH   3   8
TORSDOF 6
REMARK  Name = ../refined-set-2016/4qsv/4qsv_pocket.pdb
REMARK  118 active torsions:
REMARK  status: ('A' for Active; 'I' for Inactive)
REMARK    1  A    between atoms: _1  and  _3
REMARK    2  A    between atoms: _3  and  _4
REMARK    3  A    between atoms: _3  and  _6
REMARK    4  A    between atoms: _6  and  _7
REMARK    5  A    between atoms: _7  and  _8
REMARK    6  A    between atoms: _8  and  _9
REMARK    7  A    between atoms: _18  and  _20
REMARK    8  A    between atoms: _20  and  _21
REMARK    9  A    between atoms: _20  and  _23
REMARK   10  A    between atoms: _26  and  _28
REMARK   11  A    between atoms: _28  and  _29
REMARK   12  A    between atoms: _28  and  _31
REMARK   13  A    between atoms: _31  and  _32
REMARK   14  A    between atoms: _38  and  _40
REMARK   15  A    between atoms: _40  and  _41
REMARK   16  A    between atoms: _40  and  _43
REMARK   17  A    between atoms: _43  and  _44
REMARK   18  A    between atoms: _47  and  _49
REMARK   19  A    between atoms: _49  and  _50
REMARK   20  A    between atoms: _49  and  _52
REMARK   21  A    between atoms: _52  and  _53
REMARK   22  A    between atoms: _53  and  _54
REMARK   23  A    between atoms: _54  and  _55
REMARK   24  A    between atoms: _55  and  _56
REMARK   25  A    between atoms: _61  and  _62
REMARK   26  A    between atoms: _67  and  _69
REMARK   27  A    between atoms: _69  and  _70
REMARK   28  A    between atoms: _69  and  _72
REMARK   29  A    between atoms: _75  and  _77
REMARK   30  A    between atoms: _77  and  _78
REMARK   31  A    between atoms: _77  and  _80
REMARK   32  A    between atoms: _80  and  _81
REMARK   33  A    between atoms: _85  and  _86
REMARK   34  A    between atoms: _91  and  _93
REMARK   35  A    between atoms: _93  and  _94
REMARK   36  A    between atoms: _93  and  _96
REMARK   37  A    between atoms: _96  and  _97
REMARK   38  A    between atoms: _100  and  _102
REMARK   39  A    between atoms: _102  and  _103
REMARK   40  A    between atoms: _102  and  _105
REMARK   41  A    between atoms: _105  and  _106
REMARK   42  A    between atoms: _106  and  _107
REMARK   43  A    between atoms: _110  and  _112
REMARK   44  A    between atoms: _112  and  _113
REMARK   45  A    between atoms: _112  and  _115
REMARK   46  A    between atoms: _118  and  _120
REMARK   47  A    between atoms: _120  and  _121
REMARK   48  A    between atoms: _120  and  _123
REMARK   49  A    between atoms: _123  and  _124
REMARK   50  A    between atoms: _129  and  _130
REMARK   51  A    between atoms: _132  and  _134
REMARK   52  A    between atoms: _134  and  _135
REMARK   53  A    between atoms: _134  and  _137
REMARK   54  A    between atoms: _137  and  _138
REMARK   55  A    between atoms: _141  and  _143
REMARK   56  A    between atoms: _143  and  _144
REMARK   57  A    between atoms: _143  and  _146
REMARK   58  A    between atoms: _146  and  _147
REMARK   59  A    between atoms: _147  and  _148
REMARK   60  A    between atoms: _150  and  _152
REMARK   61  A    between atoms: _152  and  _153
REMARK   62  A    between atoms: _152  and  _155
REMARK   63  A    between atoms: _155  and  _156
REMARK   64  A    between atoms: _159  and  _161
REMARK   65  A    between atoms: _161  and  _162
REMARK   66  A    between atoms: _161  and  _164
REMARK   67  A    between atoms: _164  and  _165
REMARK   68  A    between atoms: _168  and  _170
REMARK   69  A    between atoms: _170  and  _171
REMARK   70  A    between atoms: _170  and  _173
REMARK   71  A    between atoms: _175  and  _177
REMARK   72  A    between atoms: _177  and  _178
REMARK   73  A    between atoms: _177  and  _180
REMARK   74  A    between atoms: _180  and  _181
REMARK   75  A    between atoms: _186  and  _188
REMARK   76  A    between atoms: _188  and  _189
REMARK   77  A    between atoms: _192  and  _194
REMARK   78  A    between atoms: _194  and  _195
REMARK   79  A    between atoms: _194  and  _197
REMARK   80  A    between atoms: _197  and  _198
REMARK   81  A    between atoms: _201  and  _203
REMARK   82  A    between atoms: _203  and  _204
REMARK   83  A    between atoms: _203  and  _206
REMARK   84  A    between atoms: _206  and  _207
REMARK   85  A    between atoms: _207  and  _208
REMARK   86  A    between atoms: _211  and  _213
REMARK   87  A    between atoms: _213  and  _214
REMARK   88  A    between atoms: _213  and  _216
REMARK   89  A    between atoms: _216  and  _217
REMARK   90  A    between atoms: _222  and  _223
REMARK   91  A    between atoms: _225  and  _227
REMARK   92  A    between atoms: _227  and  _228
REMARK   93  A    between atoms: _227  and  _230
REMARK   94  A    between atoms: _230  and  _231
REMARK   95  A    between atoms: _236  and  _238
REMARK   96  A    between atoms: _238  and  _239
REMARK   97  A    between atoms: _241  and  _243
REMARK   98  A    between atoms: _243  and  _244
REMARK   99  A    between atoms: _243  and  _246
REMARK  100  A    between atoms: _246  and  _247
REMARK  101  A    between atoms: _250  and  _252
REMARK  102  A    between atoms: _252  and  _253
REMARK  103  A    between atoms: _252  and  _255
REMARK  104  A    between atoms: _255  and  _256
REMARK  105  A    between atoms: _259  and  _261
REMARK  106  A    between atoms: _261  and  _262
REMARK  107  A    between atoms: _261  and  _264
REMARK  108  A    between atoms: _264  and  _265
REMARK  109  A    between atoms: _265  and  _266
REMARK  110  A    between atoms: _266  and  _267
REMARK  111  A    between atoms: _276  and  _278
REMARK  112  A    between atoms: _278  and  _279
REMARK  113  A    between atoms: _278  and  _281
REMARK  114  A    between atoms: _281  and  _282
REMARK  115  A    between atoms: _282  and  _283
REMARK  116  A    between atoms: _283  and  _284
REMARK  117  A    between atoms: _293  and  _295
REMARK  118  A    between atoms: _295  and  _296
REMARK                            x       y       z     vdW  Elec       q    Type
REMARK                         _______ _______ _______ _____ _____    ______ ____
ROOT
ATOM      1  CA  ARG A   2      25.919  35.320  -9.140  0.00  0.00    +0.137 C 
ENDROOT
BRANCH   1   4
ATOM      2  C   ILE A   1      26.731  37.389  -8.155  0.00  0.00    +0.238 C 
ATOM      3  O   ILE A   1      25.686  37.515  -7.506  0.00  0.00    -0.274 OA
ATOM      4  N   ARG A   2      26.943  36.360  -8.983  0.00  0.00    -0.298 N 
ATOM      5  H   ARG A   2      27.834  36.297  -9.516  0.00  0.00    +0.150 HD
BRANCH   2   6
ATOM      6  CA  ILE A   1      27.834  38.443  -7.968  0.00  0.00    +0.145 C 
BRANCH   6   7
ATOM      7  N   ILE A   1      29.142  37.851  -7.955  0.00  0.00    -0.238 NA
ATOM      8  H   ILE A   1      29.847  38.124  -8.669  0.00  0.00    +0.142 HD
ENDBRANCH   6   7
BRANCH   6   9
ATOM      9  CB  ILE A   1      27.661  39.585  -8.975  0.00  0.00    +0.025 C 
ATOM     10  CG2 ILE A   1      27.557  39.057 -10.367  0.00  0.00    +0.002 C 
BRANCH   9  11
ATOM     11  CG1 ILE A   1      26.331  40.277  -8.722  0.00  0.00    +0.002 C 
ATOM     12  CD1 ILE A   1      26.244  41.672  -9.262  0.00  0.00    +0.000 C 
ENDBRANCH   9  11
ENDBRANCH   6   9
ENDBRANCH   2   6
ENDBRANCH   1   4
BRANCH   1  13
ATOM     13  C   ARG A   2      25.726  34.550  -7.850  0.00  0.00    +0.227 C 
ATOM     14  O   ARG A   2      24.603  34.219  -7.474  0.00  0.00    -0.286 OA
ENDBRANCH   1  13
BRANCH   1  15
ATOM     15  CB  ARG A   2      26.231  34.344 -10.280  0.00  0.00    +0.031 C 
BRANCH  15  16
ATOM     16  CG  ARG A   2      26.207  34.978 -11.656  0.00  0.00    +0.045 C 
BRANCH  16  17
ATOM     17  CD  ARG A   2      25.912  33.962 -12.750  0.00  0.00    +0.174 C 
BRANCH  17  18
ATOM     18  NE  ARG A   2      26.869  32.892 -12.789  0.00  0.00    -0.265 N 
ATOM     19  HE  ARG A   2      26.603  31.988 -12.348  0.00  0.00    +0.259 HD
ATOM     20  CZ  ARG A   2      28.065  32.976 -13.346  0.00  0.00    +0.342 C 
ATOM     21  NH2 ARG A   2      28.885  31.920 -13.323  0.00  0.00    -0.292 N 
ATOM     22 HH21 ARG A   2      28.581  31.036 -12.868  0.00  0.00    +0.255 HD
ATOM     23 HH22 ARG A   2      29.826  31.983 -13.760  0.00  0.00    +0.255 HD
ATOM     24  NH1 ARG A   2      28.463  34.104 -13.940  0.00  0.00    -0.292 N 
ATOM     25 HH11 ARG A   2      27.830  34.928 -13.968  0.00  0.00    +0.255 HD
ATOM     26 HH12 ARG A   2      29.406  34.158 -14.375  0.00  0.00    +0.255 HD
ENDBRANCH  17  18
ENDBRANCH  16  17
ENDBRANCH  15  16
ENDBRANCH   1  15
TORSDOF 10
REMARK  Name = ../refined-set-2016/4qsv/4qsv_pocket.pdb
REMARK  118 active torsions:
REMARK  status: ('A' for Active; 'I' for Inactive)
REMARK    1  A    between atoms: _1  and  _3
REMARK    2  A    between atoms: _3  and  _4
REMARK    3  A    between atoms: _3  and  _6
REMARK    4  A    between atoms: _6  and  _7
REMARK    5  A    between atoms: _7  and  _8
REMARK    6  A    between atoms: _8  and  _9
REMARK    7  A    between atoms: _18  and  _20
REMARK    8  A    between atoms: _20  and  _21
REMARK    9  A    between atoms: _20  and  _23
REMARK   10  A    between atoms: _26  and  _28
REMARK   11  A    between atoms: _28  and  _29
REMARK   12  A    between atoms: _28  and  _31
REMARK   13  A    between atoms: _31  and  _32
REMARK   14  A    between atoms: _38  and  _40
REMARK   15  A    between atoms: _40  and  _41
REMARK   16  A    between atoms: _40  and  _43
REMARK   17  A    between atoms: _43  and  _44
REMARK   18  A    between atoms: _47  and  _49
REMARK   19  A    between atoms: _49  and  _50
REMARK   20  A    between atoms: _49  and  _52
REMARK   21  A    between atoms: _52  and  _53
REMARK   22  A    between atoms: _53  and  _54
REMARK   23  A    between atoms: _54  and  _55
REMARK   24  A    between atoms: _55  and  _56
REMARK   25  A    between atoms: _61  and  _62
REMARK   26  A    between atoms: _67  and  _69
REMARK   27  A    between atoms: _69  and  _70
REMARK   28  A    between atoms: _69  and  _72
REMARK   29  A    between atoms: _75  and  _77
REMARK   30  A    between atoms: _77  and  _78
REMARK   31  A    between atoms: _77  and  _80
REMARK   32  A    between atoms: _80  and  _81
REMARK   33  A    between atoms: _85  and  _86
REMARK   34  A    between atoms: _91  and  _93
REMARK   35  A    between atoms: _93  and  _94
REMARK   36  A    between atoms: _93  and  _96
REMARK   37  A    between atoms: _96  and  _97
REMARK   38  A    between atoms: _100  and  _102
REMARK   39  A    between atoms: _102  and  _103
REMARK   40  A    between atoms: _102  and  _105
REMARK   41  A    between atoms: _105  and  _106
REMARK   42  A    between atoms: _106  and  _107
REMARK   43  A    between atoms: _110  and  _112
REMARK   44  A    between atoms: _112  and  _113
REMARK   45  A    between atoms: _112  and  _115
REMARK   46  A    between atoms: _118  and  _120
REMARK   47  A    between atoms: _120  and  _121
REMARK   48  A    between atoms: _120  and  _123
REMARK   49  A    between atoms: _123  and  _124
REMARK   50  A    between atoms: _129  and  _130
REMARK   51  A    between atoms: _132  and  _134
REMARK   52  A    between atoms: _134  and  _135
REMARK   53  A    between atoms: _134  and  _137
REMARK   54  A    between atoms: _137  and  _138
REMARK   55  A    between atoms: _141  and  _143
REMARK   56  A    between atoms: _143  and  _144
REMARK   57  A    between atoms: _143  and  _146
REMARK   58  A    between atoms: _146  and  _147
REMARK   59  A    between atoms: _147  and  _148
REMARK   60  A    between atoms: _150  and  _152
REMARK   61  A    between atoms: _152  and  _153
REMARK   62  A    between atoms: _152  and  _155
REMARK   63  A    between atoms: _155  and  _156
REMARK   64  A    between atoms: _159  and  _161
REMARK   65  A    between atoms: _161  and  _162
REMARK   66  A    between atoms: _161  and  _164
REMARK   67  A    between atoms: _164  and  _165
REMARK   68  A    between atoms: _168  and  _170
REMARK   69  A    between atoms: _170  and  _171
REMARK   70  A    between atoms: _170  and  _173
REMARK   71  A    between atoms: _175  and  _177
REMARK   72  A    between atoms: _177  and  _178
REMARK   73  A    between atoms: _177  and  _180
REMARK   74  A    between atoms: _180  and  _181
REMARK   75  A    between atoms: _186  and  _188
REMARK   76  A    between atoms: _188  and  _189
REMARK   77  A    between atoms: _192  and  _194
REMARK   78  A    between atoms: _194  and  _195
REMARK   79  A    between atoms: _194  and  _197
REMARK   80  A    between atoms: _197  and  _198
REMARK   81  A    between atoms: _201  and  _203
REMARK   82  A    between atoms: _203  and  _204
REMARK   83  A    between atoms: _203  and  _206
REMARK   84  A    between atoms: _206  and  _207
REMARK   85  A    between atoms: _207  and  _208
REMARK   86  A    between atoms: _211  and  _213
REMARK   87  A    between atoms: _213  and  _214
REMARK   88  A    between atoms: _213  and  _216
REMARK   89  A    between atoms: _216  and  _217
REMARK   90  A    between atoms: _222  and  _223
REMARK   91  A    between atoms: _225  and  _227
REMARK   92  A    between atoms: _227  and  _228
REMARK   93  A    between atoms: _227  and  _230
REMARK   94  A    between atoms: _230  and  _231
REMARK   95  A    between atoms: _236  and  _238
REMARK   96  A    between atoms: _238  and  _239
REMARK   97  A    between atoms: _241  and  _243
REMARK   98  A    between atoms: _243  and  _244
REMARK   99  A    between atoms: _243  and  _246
REMARK  100  A    between atoms: _246  and  _247
REMARK  101  A    between atoms: _250  and  _252
REMARK  102  A    between atoms: _252  and  _253
REMARK  103  A    between atoms: _252  and  _255
REMARK  104  A    between atoms: _255  and  _256
REMARK  105  A    between atoms: _259  and  _261
REMARK  106  A    between atoms: _261  and  _262
REMARK  107  A    between atoms: _261  and  _264
REMARK  108  A    between atoms: _264  and  _265
REMARK  109  A    between atoms: _265  and  _266
REMARK  110  A    between atoms: _266  and  _267
REMARK  111  A    between atoms: _276  and  _278
REMARK  112  A    between atoms: _278  and  _279
REMARK  113  A    between atoms: _278  and  _281
REMARK  114  A    between atoms: _281  and  _282
REMARK  115  A    between atoms: _282  and  _283
REMARK  116  A    between atoms: _283  and  _284
REMARK  117  A    between atoms: _293  and  _295
REMARK  118  A    between atoms: _295  and  _296
REMARK                            x       y       z     vdW  Elec       q    Type
REMARK                         _______ _______ _______ _____ _____    ______ ____
ROOT
ATOM      1  CB  ARG A   1      26.166  37.952  -3.949  0.00  0.00    +0.030 C 
ENDROOT
BRANCH   1   2
ATOM      2  CA  ARG A   1      25.517  36.577  -3.953  0.00  0.00    +0.145 C 
BRANCH   2   3
ATOM      3  C   ARG A   1      24.025  36.707  -4.321  0.00  0.00    +0.238 C 
ATOM      4  O   ARG A   1      23.168  36.742  -3.419  0.00  0.00    -0.274 OA
ATOM      5  N   ALA A   2      23.735  36.689  -5.616  0.00  0.00    -0.298 N 
ATOM      6  H   ALA A   2      24.501  36.602  -6.314  0.00  0.00    +0.150 HD
BRANCH   5   7
ATOM      7  CA  ALA A   2      22.325  36.792  -6.081  0.00  0.00    +0.137 C 
ATOM      8  CB  ALA A   2      22.305  36.958  -7.582  0.00  0.00    +0.030 C 
BRANCH   7   9
ATOM      9  C   ALA A   2      21.489  35.578  -5.656  0.00  0.00    +0.227 C 
ATOM     10  O   ALA A   2      20.363  35.734  -5.113  0.00  0.00    -0.286 OA
ENDBRANCH   7   9
ENDBRANCH   5   7
ENDBRANCH   2   3
BRANCH   2  11
ATOM     11  N   ARG A   1      26.199  35.694  -4.839  0.00  0.00    -0.238 NA
ATOM     12  H   ARG A   1      26.927  36.077  -5.475  0.00  0.00    +0.142 HD
ENDBRANCH   2  11
ENDBRANCH   1   2
BRANCH   1  13
ATOM     13  CG  ARG A   1      27.543  37.974  -3.251  0.00  0.00    +0.045 C 
BRANCH  13  14
ATOM     14  CD  ARG A   1      28.236  39.267  -3.559  0.00  0.00    +0.174 C 
BRANCH  14  15
ATOM     15  NE  ARG A   1      29.374  39.436  -2.681  0.00  0.00    -0.265 N 
ATOM     16  HE  ARG A   1      29.475  38.776  -1.884  0.00  0.00    +0.259 HD
ATOM     17  CZ  ARG A   1      30.296  40.377  -2.826  0.00  0.00    +0.342 C 
ATOM     18  NH2 ARG A   1      31.326  40.405  -1.975  0.00  0.00    -0.292 N 
ATOM     19 HH21 ARG A   1      31.393  39.697  -1.216  0.00  0.00    +0.255 HD
ATOM     20 HH22 ARG A   1      32.060  41.135  -2.071  0.00  0.00    +0.255 HD
ATOM     21  NH1 ARG A   1      30.224  41.264  -3.802  0.00  0.00    -0.292 N 
ATOM     22 HH11 ARG A   1      30.959  41.994  -3.897  0.00  0.00    +0.255 HD
ATOM     23 HH12 ARG A   1      29.432  41.233  -4.476  0.00  0.00    +0.255 HD
ENDBRANCH  14  15
ENDBRANCH  13  14
ENDBRANCH   1  13
TORSDOF 8
REMARK  Name = ../refined-set-2016/4qsv/4qsv_pocket.pdb
REMARK  118 active torsions:
REMARK  status: ('A' for Active; 'I' for Inactive)
REMARK    1  A    between atoms: _1  and  _3
REMARK    2  A    between atoms: _3  and  _4
REMARK    3  A    between atoms: _3  and  _6
REMARK    4  A    between atoms: _6  and  _7
REMARK    5  A    between atoms: _7  and  _8
REMARK    6  A    between atoms: _8  and  _9
REMARK    7  A    between atoms: _18  and  _20
REMARK    8  A    between atoms: _20  and  _21
REMARK    9  A    between atoms: _20  and  _23
REMARK   10  A    between atoms: _26  and  _28
REMARK   11  A    between atoms: _28  and  _29
REMARK   12  A    between atoms: _28  and  _31
REMARK   13  A    between atoms: _31  and  _32
REMARK   14  A    between atoms: _38  and  _40
REMARK   15  A    between atoms: _40  and  _41
REMARK   16  A    between atoms: _40  and  _43
REMARK   17  A    between atoms: _43  and  _44
REMARK   18  A    between atoms: _47  and  _49
REMARK   19  A    between atoms: _49  and  _50
REMARK   20  A    between atoms: _49  and  _52
REMARK   21  A    between atoms: _52  and  _53
REMARK   22  A    between atoms: _53  and  _54
REMARK   23  A    between atoms: _54  and  _55
REMARK   24  A    between atoms: _55  and  _56
REMARK   25  A    between atoms: _61  and  _62
REMARK   26  A    between atoms: _67  and  _69
REMARK   27  A    between atoms: _69  and  _70
REMARK   28  A    between atoms: _69  and  _72
REMARK   29  A    between atoms: _75  and  _77
REMARK   30  A    between atoms: _77  and  _78
REMARK   31  A    between atoms: _77  and  _80
REMARK   32  A    between atoms: _80  and  _81
REMARK   33  A    between atoms: _85  and  _86
REMARK   34  A    between atoms: _91  and  _93
REMARK   35  A    between atoms: _93  and  _94
REMARK   36  A    between atoms: _93  and  _96
REMARK   37  A    between atoms: _96  and  _97
REMARK   38  A    between atoms: _100  and  _102
REMARK   39  A    between atoms: _102  and  _103
REMARK   40  A    between atoms: _102  and  _105
REMARK   41  A    between atoms: _105  and  _106
REMARK   42  A    between atoms: _106  and  _107
REMARK   43  A    between atoms: _110  and  _112
REMARK   44  A    between atoms: _112  and  _113
REMARK   45  A    between atoms: _112  and  _115
REMARK   46  A    between atoms: _118  and  _120
REMARK   47  A    between atoms: _120  and  _121
REMARK   48  A    between atoms: _120  and  _123
REMARK   49  A    between atoms: _123  and  _124
REMARK   50  A    between atoms: _129  and  _130
REMARK   51  A    between atoms: _132  and  _134
REMARK   52  A    between atoms: _134  and  _135
REMARK   53  A    between atoms: _134  and  _137
REMARK   54  A    between atoms: _137  and  _138
REMARK   55  A    between atoms: _141  and  _143
REMARK   56  A    between atoms: _143  and  _144
REMARK   57  A    between atoms: _143  and  _146
REMARK   58  A    between atoms: _146  and  _147
REMARK   59  A    between atoms: _147  and  _148
REMARK   60  A    between atoms: _150  and  _152
REMARK   61  A    between atoms: _152  and  _153
REMARK   62  A    between atoms: _152  and  _155
REMARK   63  A    between atoms: _155  and  _156
REMARK   64  A    between atoms: _159  and  _161
REMARK   65  A    between atoms: _161  and  _162
REMARK   66  A    between atoms: _161  and  _164
REMARK   67  A    between atoms: _164  and  _165
REMARK   68  A    between atoms: _168  and  _170
REMARK   69  A    between atoms: _170  and  _171
REMARK   70  A    between atoms: _170  and  _173
REMARK   71  A    between atoms: _175  and  _177
REMARK   72  A    between atoms: _177  and  _178
REMARK   73  A    between atoms: _177  and  _180
REMARK   74  A    between atoms: _180  and  _181
REMARK   75  A    between atoms: _186  and  _188
REMARK   76  A    between atoms: _188  and  _189
REMARK   77  A    between atoms: _192  and  _194
REMARK   78  A    between atoms: _194  and  _195
REMARK   79  A    between atoms: _194  and  _197
REMARK   80  A    between atoms: _197  and  _198
REMARK   81  A    between atoms: _201  and  _203
REMARK   82  A    between atoms: _203  and  _204
REMARK   83  A    between atoms: _203  and  _206
REMARK   84  A    between atoms: _206  and  _207
REMARK   85  A    between atoms: _207  and  _208
REMARK   86  A    between atoms: _211  and  _213
REMARK   87  A    between atoms: _213  and  _214
REMARK   88  A    between atoms: _213  and  _216
REMARK   89  A    between atoms: _216  and  _217
REMARK   90  A    between atoms: _222  and  _223
REMARK   91  A    between atoms: _225  and  _227
REMARK   92  A    between atoms: _227  and  _228
REMARK   93  A    between atoms: _227  and  _230
REMARK   94  A    between atoms: _230  and  _231
REMARK   95  A    between atoms: _236  and  _238
REMARK   96  A    between atoms: _238  and  _239
REMARK   97  A    between atoms: _241  and  _243
REMARK   98  A    between atoms: _243  and  _244
REMARK   99  A    between atoms: _243  and  _246
REMARK  100  A    between atoms: _246  and  _247
REMARK  101  A    between atoms: _250  and  _252
REMARK  102  A    between atoms: _252  and  _253
REMARK  103  A    between atoms: _252  and  _255
REMARK  104  A    between atoms: _255  and  _256
REMARK  105  A    between atoms: _259  and  _261
REMARK  106  A    between atoms: _261  and  _262
REMARK  107  A    between atoms: _261  and  _264
REMARK  108  A    between atoms: _264  and  _265
REMARK  109  A    between atoms: _265  and  _266
REMARK  110  A    between atoms: _266  and  _267
REMARK  111  A    between atoms: _276  and  _278
REMARK  112  A    between atoms: _278  and  _279
REMARK  113  A    between atoms: _278  and  _281
REMARK  114  A    between atoms: _281  and  _282
REMARK  115  A    between atoms: _282  and  _283
REMARK  116  A    between atoms: _283  and  _284
REMARK  117  A    between atoms: _293  and  _295
REMARK  118  A    between atoms: _295  and  _296
REMARK                            x       y       z     vdW  Elec       q    Type
REMARK                         _______ _______ _______ _____ _____    ______ ____
ROOT
ATOM      1  O   HOH     1      18.222  44.783 -11.539  0.00  0.00    +0.000 OA
ENDROOT
TORSDOF 0
REMARK  Name = ../refined-set-2016/4qsv/4qsv_pocket.pdb
REMARK  118 active torsions:
REMARK  status: ('A' for Active; 'I' for Inactive)
REMARK    1  A    between atoms: _1  and  _3
REMARK    2  A    between atoms: _3  and  _4
REMARK    3  A    between atoms: _3  and  _6
REMARK    4  A    between atoms: _6  and  _7
REMARK    5  A    between atoms: _7  and  _8
REMARK    6  A    between atoms: _8  and  _9
REMARK    7  A    between atoms: _18  and  _20
REMARK    8  A    between atoms: _20  and  _21
REMARK    9  A    between atoms: _20  and  _23
REMARK   10  A    between atoms: _26  and  _28
REMARK   11  A    between atoms: _28  and  _29
REMARK   12  A    between atoms: _28  and  _31
REMARK   13  A    between atoms: _31  and  _32
REMARK   14  A    between atoms: _38  and  _40
REMARK   15  A    between atoms: _40  and  _41
REMARK   16  A    between atoms: _40  and  _43
REMARK   17  A    between atoms: _43  and  _44
REMARK   18  A    between atoms: _47  and  _49
REMARK   19  A    between atoms: _49  and  _50
REMARK   20  A    between atoms: _49  and  _52
REMARK   21  A    between atoms: _52  and  _53
REMARK   22  A    between atoms: _53  and  _54
REMARK   23  A    between atoms: _54  and  _55
REMARK   24  A    between atoms: _55  and  _56
REMARK   25  A    between atoms: _61  and  _62
REMARK   26  A    between atoms: _67  and  _69
REMARK   27  A    between atoms: _69  and  _70
REMARK   28  A    between atoms: _69  and  _72
REMARK   29  A    between atoms: _75  and  _77
REMARK   30  A    between atoms: _77  and  _78
REMARK   31  A    between atoms: _77  and  _80
REMARK   32  A    between atoms: _80  and  _81
REMARK   33  A    between atoms: _85  and  _86
REMARK   34  A    between atoms: _91  and  _93
REMARK   35  A    between atoms: _93  and  _94
REMARK   36  A    between atoms: _93  and  _96
REMARK   37  A    between atoms: _96  and  _97
REMARK   38  A    between atoms: _100  and  _102
REMARK   39  A    between atoms: _102  and  _103
REMARK   40  A    between atoms: _102  and  _105
REMARK   41  A    between atoms: _105  and  _106
REMARK   42  A    between atoms: _106  and  _107
REMARK   43  A    between atoms: _110  and  _112
REMARK   44  A    between atoms: _112  and  _113
REMARK   45  A    between atoms: _112  and  _115
REMARK   46  A    between atoms: _118  and  _120
REMARK   47  A    between atoms: _120  and  _121
REMARK   48  A    between atoms: _120  and  _123
REMARK   49  A    between atoms: _123  and  _124
REMARK   50  A    between atoms: _129  and  _130
REMARK   51  A    between atoms: _132  and  _134
REMARK   52  A    between atoms: _134  and  _135
REMARK   53  A    between atoms: _134  and  _137
REMARK   54  A    between atoms: _137  and  _138
REMARK   55  A    between atoms: _141  and  _143
REMARK   56  A    between atoms: _143  and  _144
REMARK   57  A    between atoms: _143  and  _146
REMARK   58  A    between atoms: _146  and  _147
REMARK   59  A    between atoms: _147  and  _148
REMARK   60  A    between atoms: _150  and  _152
REMARK   61  A    between atoms: _152  and  _153
REMARK   62  A    between atoms: _152  and  _155
REMARK   63  A    between atoms: _155  and  _156
REMARK   64  A    between atoms: _159  and  _161
REMARK   65  A    between atoms: _161  and  _162
REMARK   66  A    between atoms: _161  and  _164
REMARK   67  A    between atoms: _164  and  _165
REMARK   68  A    between atoms: _168  and  _170
REMARK   69  A    between atoms: _170  and  _171
REMARK   70  A    between atoms: _170  and  _173
REMARK   71  A    between atoms: _175  and  _177
REMARK   72  A    between atoms: _177  and  _178
REMARK   73  A    between atoms: _177  and  _180
REMARK   74  A    between atoms: _180  and  _181
REMARK   75  A    between atoms: _186  and  _188
REMARK   76  A    between atoms: _188  and  _189
REMARK   77  A    between atoms: _192  and  _194
REMARK   78  A    between atoms: _194  and  _195
REMARK   79  A    between atoms: _194  and  _197
REMARK   80  A    between atoms: _197  and  _198
REMARK   81  A    between atoms: _201  and  _203
REMARK   82  A    between atoms: _203  and  _204
REMARK   83  A    between atoms: _203  and  _206
REMARK   84  A    between atoms: _206  and  _207
REMARK   85  A    between atoms: _207  and  _208
REMARK   86  A    between atoms: _211  and  _213
REMARK   87  A    between atoms: _213  and  _214
REMARK   88  A    between atoms: _213  and  _216
REMARK   89  A    between atoms: _216  and  _217
REMARK   90  A    between atoms: _222  and  _223
REMARK   91  A    between atoms: _225  and  _227
REMARK   92  A    between atoms: _227  and  _228
REMARK   93  A    between atoms: _227  and  _230
REMARK   94  A    between atoms: _230  and  _231
REMARK   95  A    between atoms: _236  and  _238
REMARK   96  A    between atoms: _238  and  _239
REMARK   97  A    between atoms: _241  and  _243
REMARK   98  A    between atoms: _243  and  _244
REMARK   99  A    between atoms: _243  and  _246
REMARK  100  A    between atoms: _246  and  _247
REMARK  101  A    between atoms: _250  and  _252
REMARK  102  A    between atoms: _252  and  _253
REMARK  103  A    between atoms: _252  and  _255
REMARK  104  A    between atoms: _255  and  _256
REMARK  105  A    between atoms: _259  and  _261
REMARK  106  A    between atoms: _261  and  _262
REMARK  107  A    between atoms: _261  and  _264
REMARK  108  A    between atoms: _264  and  _265
REMARK  109  A    between atoms: _265  and  _266
REMARK  110  A    between atoms: _266  and  _267
REMARK  111  A    between atoms: _276  and  _278
REMARK  112  A    between atoms: _278  and  _279
REMARK  113  A    between atoms: _278  and  _281
REMARK  114  A    between atoms: _281  and  _282
REMARK  115  A    between atoms: _282  and  _283
REMARK  116  A    between atoms: _283  and  _284
REMARK  117  A    between atoms: _293  and  _295
REMARK  118  A    between atoms: _295  and  _296
REMARK                            x       y       z     vdW  Elec       q    Type
REMARK                         _______ _______ _______ _____ _____    ______ ____
ROOT
ATOM      1  O   HOH     1      21.669  42.790 -11.970  0.00  0.00    +0.000 OA
ENDROOT
TORSDOF 0
REMARK  Name = ../refined-set-2016/4qsv/4qsv_pocket.pdb
REMARK  118 active torsions:
REMARK  status: ('A' for Active; 'I' for Inactive)
REMARK    1  A    between atoms: _1  and  _3
REMARK    2  A    between atoms: _3  and  _4
REMARK    3  A    between atoms: _3  and  _6
REMARK    4  A    between atoms: _6  and  _7
REMARK    5  A    between atoms: _7  and  _8
REMARK    6  A    between atoms: _8  and  _9
REMARK    7  A    between atoms: _18  and  _20
REMARK    8  A    between atoms: _20  and  _21
REMARK    9  A    between atoms: _20  and  _23
REMARK   10  A    between atoms: _26  and  _28
REMARK   11  A    between atoms: _28  and  _29
REMARK   12  A    between atoms: _28  and  _31
REMARK   13  A    between atoms: _31  and  _32
REMARK   14  A    between atoms: _38  and  _40
REMARK   15  A    between atoms: _40  and  _41
REMARK   16  A    between atoms: _40  and  _43
REMARK   17  A    between atoms: _43  and  _44
REMARK   18  A    between atoms: _47  and  _49
REMARK   19  A    between atoms: _49  and  _50
REMARK   20  A    between atoms: _49  and  _52
REMARK   21  A    between atoms: _52  and  _53
REMARK   22  A    between atoms: _53  and  _54
REMARK   23  A    between atoms: _54  and  _55
REMARK   24  A    between atoms: _55  and  _56
REMARK   25  A    between atoms: _61  and  _62
REMARK   26  A    between atoms: _67  and  _69
REMARK   27  A    between atoms: _69  and  _70
REMARK   28  A    between atoms: _69  and  _72
REMARK   29  A    between atoms: _75  and  _77
REMARK   30  A    between atoms: _77  and  _78
REMARK   31  A    between atoms: _77  and  _80
REMARK   32  A    between atoms: _80  and  _81
REMARK   33  A    between atoms: _85  and  _86
REMARK   34  A    between atoms: _91  and  _93
REMARK   35  A    between atoms: _93  and  _94
REMARK   36  A    between atoms: _93  and  _96
REMARK   37  A    between atoms: _96  and  _97
REMARK   38  A    between atoms: _100  and  _102
REMARK   39  A    between atoms: _102  and  _103
REMARK   40  A    between atoms: _102  and  _105
REMARK   41  A    between atoms: _105  and  _106
REMARK   42  A    between atoms: _106  and  _107
REMARK   43  A    between atoms: _110  and  _112
REMARK   44  A    between atoms: _112  and  _113
REMARK   45  A    between atoms: _112  and  _115
REMARK   46  A    between atoms: _118  and  _120
REMARK   47  A    between atoms: _120  and  _121
REMARK   48  A    between atoms: _120  and  _123
REMARK   49  A    between atoms: _123  and  _124
REMARK   50  A    between atoms: _129  and  _130
REMARK   51  A    between atoms: _132  and  _134
REMARK   52  A    between atoms: _134  and  _135
REMARK   53  A    between atoms: _134  and  _137
REMARK   54  A    between atoms: _137  and  _138
REMARK   55  A    between atoms: _141  and  _143
REMARK   56  A    between atoms: _143  and  _144
REMARK   57  A    between atoms: _143  and  _146
REMARK   58  A    between atoms: _146  and  _147
REMARK   59  A    between atoms: _147  and  _148
REMARK   60  A    between atoms: _150  and  _152
REMARK   61  A    between atoms: _152  and  _153
REMARK   62  A    between atoms: _152  and  _155
REMARK   63  A    between atoms: _155  and  _156
REMARK   64  A    between atoms: _159  and  _161
REMARK   65  A    between atoms: _161  and  _162
REMARK   66  A    between atoms: _161  and  _164
REMARK   67  A    between atoms: _164  and  _165
REMARK   68  A    between atoms: _168  and  _170
REMARK   69  A    between atoms: _170  and  _171
REMARK   70  A    between atoms: _170  and  _173
REMARK   71  A    between atoms: _175  and  _177
REMARK   72  A    between atoms: _177  and  _178
REMARK   73  A    between atoms: _177  and  _180
REMARK   74  A    between atoms: _180  and  _181
REMARK   75  A    between atoms: _186  and  _188
REMARK   76  A    between atoms: _188  and  _189
REMARK   77  A    between atoms: _192  and  _194
REMARK   78  A    between atoms: _194  and  _195
REMARK   79  A    between atoms: _194  and  _197
REMARK   80  A    between atoms: _197  and  _198
REMARK   81  A    between atoms: _201  and  _203
REMARK   82  A    between atoms: _203  and  _204
REMARK   83  A    between atoms: _203  and  _206
REMARK   84  A    between atoms: _206  and  _207
REMARK   85  A    between atoms: _207  and  _208
REMARK   86  A    between atoms: _211  and  _213
REMARK   87  A    between atoms: _213  and  _214
REMARK   88  A    between atoms: _213  and  _216
REMARK   89  A    between atoms: _216  and  _217
REMARK   90  A    between atoms: _222  and  _223
REMARK   91  A    between atoms: _225  and  _227
REMARK   92  A    between atoms: _227  and  _228
REMARK   93  A    between atoms: _227  and  _230
REMARK   94  A    between atoms: _230  and  _231
REMARK   95  A    between atoms: _236  and  _238
REMARK   96  A    between atoms: _238  and  _239
REMARK   97  A    between atoms: _241  and  _243
REMARK   98  A    between atoms: _243  and  _244
REMARK   99  A    between atoms: _243  and  _246
REMARK  100  A    between atoms: _246  and  _247
REMARK  101  A    between atoms: _250  and  _252
REMARK  102  A    between atoms: _252  and  _253
REMARK  103  A    between atoms: _252  and  _255
REMARK  104  A    between atoms: _255  and  _256
REMARK  105  A    between atoms: _259  and  _261
REMARK  106  A    between atoms: _261  and  _262
REMARK  107  A    between atoms: _261  and  _264
REMARK  108  A    between atoms: _264  and  _265
REMARK  109  A    between atoms: _265  and  _266
REMARK  110  A    between atoms: _266  and  _267
REMARK  111  A    between atoms: _276  and  _278
REMARK  112  A    between atoms: _278  and  _279
REMARK  113  A    between atoms: _278  and  _281
REMARK  114  A    between atoms: _281  and  _282
REMARK  115  A    between atoms: _282  and  _283
REMARK  116  A    between atoms: _283  and  _284
REMARK  117  A    between atoms: _293  and  _295
REMARK  118  A    between atoms: _295  and  _296
REMARK                            x       y       z     vdW  Elec       q    Type
REMARK                         _______ _______ _______ _____ _____    ______ ____
ROOT
ATOM      1  O   HOH     1      31.291  40.729  -8.175  0.00  0.00    +0.000 OA
ENDROOT
TORSDOF 0
REMARK  Name = ../refined-set-2016/4qsv/4qsv_pocket.pdb
REMARK  118 active torsions:
REMARK  status: ('A' for Active; 'I' for Inactive)
REMARK    1  A    between atoms: _1  and  _3
REMARK    2  A    between atoms: _3  and  _4
REMARK    3  A    between atoms: _3  and  _6
REMARK    4  A    between atoms: _6  and  _7
REMARK    5  A    between atoms: _7  and  _8
REMARK    6  A    between atoms: _8  and  _9
REMARK    7  A    between atoms: _18  and  _20
REMARK    8  A    between atoms: _20  and  _21
REMARK    9  A    between atoms: _20  and  _23
REMARK   10  A    between atoms: _26  and  _28
REMARK   11  A    between atoms: _28  and  _29
REMARK   12  A    between atoms: _28  and  _31
REMARK   13  A    between atoms: _31  and  _32
REMARK   14  A    between atoms: _38  and  _40
REMARK   15  A    between atoms: _40  and  _41
REMARK   16  A    between atoms: _40  and  _43
REMARK   17  A    between atoms: _43  and  _44
REMARK   18  A    between atoms: _47  and  _49
REMARK   19  A    between atoms: _49  and  _50
REMARK   20  A    between atoms: _49  and  _52
REMARK   21  A    between atoms: _52  and  _53
REMARK   22  A    between atoms: _53  and  _54
REMARK   23  A    between atoms: _54  and  _55
REMARK   24  A    between atoms: _55  and  _56
REMARK   25  A    between atoms: _61  and  _62
REMARK   26  A    between atoms: _67  and  _69
REMARK   27  A    between atoms: _69  and  _70
REMARK   28  A    between atoms: _69  and  _72
REMARK   29  A    between atoms: _75  and  _77
REMARK   30  A    between atoms: _77  and  _78
REMARK   31  A    between atoms: _77  and  _80
REMARK   32  A    between atoms: _80  and  _81
REMARK   33  A    between atoms: _85  and  _86
REMARK   34  A    between atoms: _91  and  _93
REMARK   35  A    between atoms: _93  and  _94
REMARK   36  A    between atoms: _93  and  _96
REMARK   37  A    between atoms: _96  and  _97
REMARK   38  A    between atoms: _100  and  _102
REMARK   39  A    between atoms: _102  and  _103
REMARK   40  A    between atoms: _102  and  _105
REMARK   41  A    between atoms: _105  and  _106
REMARK   42  A    between atoms: _106  and  _107
REMARK   43  A    between atoms: _110  and  _112
REMARK   44  A    between atoms: _112  and  _113
REMARK   45  A    between atoms: _112  and  _115
REMARK   46  A    between atoms: _118  and  _120
REMARK   47  A    between atoms: _120  and  _121
REMARK   48  A    between atoms: _120  and  _123
REMARK   49  A    between atoms: _123  and  _124
REMARK   50  A    between atoms: _129  and  _130
REMARK   51  A    between atoms: _132  and  _134
REMARK   52  A    between atoms: _134  and  _135
REMARK   53  A    between atoms: _134  and  _137
REMARK   54  A    between atoms: _137  and  _138
REMARK   55  A    between atoms: _141  and  _143
REMARK   56  A    between atoms: _143  and  _144
REMARK   57  A    between atoms: _143  and  _146
REMARK   58  A    between atoms: _146  and  _147
REMARK   59  A    between atoms: _147  and  _148
REMARK   60  A    between atoms: _150  and  _152
REMARK   61  A    between atoms: _152  and  _153
REMARK   62  A    between atoms: _152  and  _155
REMARK   63  A    between atoms: _155  and  _156
REMARK   64  A    between atoms: _159  and  _161
REMARK   65  A    between atoms: _161  and  _162
REMARK   66  A    between atoms: _161  and  _164
REMARK   67  A    between atoms: _164  and  _165
REMARK   68  A    between atoms: _168  and  _170
REMARK   69  A    between atoms: _170  and  _171
REMARK   70  A    between atoms: _170  and  _173
REMARK   71  A    between atoms: _175  and  _177
REMARK   72  A    between atoms: _177  and  _178
REMARK   73  A    between atoms: _177  and  _180
REMARK   74  A    between atoms: _180  and  _181
REMARK   75  A    between atoms: _186  and  _188
REMARK   76  A    between atoms: _188  and  _189
REMARK   77  A    between atoms: _192  and  _194
REMARK   78  A    between atoms: _194  and  _195
REMARK   79  A    between atoms: _194  and  _197
REMARK   80  A    between atoms: _197  and  _198
REMARK   81  A    between atoms: _201  and  _203
REMARK   82  A    between atoms: _203  and  _204
REMARK   83  A    between atoms: _203  and  _206
REMARK   84  A    between atoms: _206  and  _207
REMARK   85  A    between atoms: _207  and  _208
REMARK   86  A    between atoms: _211  and  _213
REMARK   87  A    between atoms: _213  and  _214
REMARK   88  A    between atoms: _213  and  _216
REMARK   89  A    between atoms: _216  and  _217
REMARK   90  A    between atoms: _222  and  _223
REMARK   91  A    between atoms: _225  and  _227
REMARK   92  A    between atoms: _227  and  _228
REMARK   93  A    between atoms: _227  and  _230
REMARK   94  A    between atoms: _230  and  _231
REMARK   95  A    between atoms: _236  and  _238
REMARK   96  A    between atoms: _238  and  _239
REMARK   97  A    between atoms: _241  and  _243
REMARK   98  A    between atoms: _243  and  _244
REMARK   99  A    between atoms: _243  and  _246
REMARK  100  A    between atoms: _246  and  _247
REMARK  101  A    between atoms: _250  and  _252
REMARK  102  A    between atoms: _252  and  _253
REMARK  103  A    between atoms: _252  and  _255
REMARK  104  A    between atoms: _255  and  _256
REMARK  105  A    between atoms: _259  and  _261
REMARK  106  A    between atoms: _261  and  _262
REMARK  107  A    between atoms: _261  and  _264
REMARK  108  A    between atoms: _264  and  _265
REMARK  109  A    between atoms: _265  and  _266
REMARK  110  A    between atoms: _266  and  _267
REMARK  111  A    between atoms: _276  and  _278
REMARK  112  A    between atoms: _278  and  _279
REMARK  113  A    between atoms: _278  and  _281
REMARK  114  A    between atoms: _281  and  _282
REMARK  115  A    between atoms: _282  and  _283
REMARK  116  A    between atoms: _283  and  _284
REMARK  117  A    between atoms: _293  and  _295
REMARK  118  A    between atoms: _295  and  _296
REMARK                            x       y       z     vdW  Elec       q    Type
REMARK                         _______ _______ _______ _____ _____    ______ ____
ROOT
ATOM      1  O   HOH     1      27.226  43.058  -2.726  0.00  0.00    +0.000 OA
ENDROOT
TORSDOF 0
REMARK  Name = ../refined-set-2016/4qsv/4qsv_pocket.pdb
REMARK  118 active torsions:
REMARK  status: ('A' for Active; 'I' for Inactive)
REMARK    1  A    between atoms: _1  and  _3
REMARK    2  A    between atoms: _3  and  _4
REMARK    3  A    between atoms: _3  and  _6
REMARK    4  A    between atoms: _6  and  _7
REMARK    5  A    between atoms: _7  and  _8
REMARK    6  A    between atoms: _8  and  _9
REMARK    7  A    between atoms: _18  and  _20
REMARK    8  A    between atoms: _20  and  _21
REMARK    9  A    between atoms: _20  and  _23
REMARK   10  A    between atoms: _26  and  _28
REMARK   11  A    between atoms: _28  and  _29
REMARK   12  A    between atoms: _28  and  _31
REMARK   13  A    between atoms: _31  and  _32
REMARK   14  A    between atoms: _38  and  _40
REMARK   15  A    between atoms: _40  and  _41
REMARK   16  A    between atoms: _40  and  _43
REMARK   17  A    between atoms: _43  and  _44
REMARK   18  A    between atoms: _47  and  _49
REMARK   19  A    between atoms: _49  and  _50
REMARK   20  A    between atoms: _49  and  _52
REMARK   21  A    between atoms: _52  and  _53
REMARK   22  A    between atoms: _53  and  _54
REMARK   23  A    between atoms: _54  and  _55
REMARK   24  A    between atoms: _55  and  _56
REMARK   25  A    between atoms: _61  and  _62
REMARK   26  A    between atoms: _67  and  _69
REMARK   27  A    between atoms: _69  and  _70
REMARK   28  A    between atoms: _69  and  _72
REMARK   29  A    between atoms: _75  and  _77
REMARK   30  A    between atoms: _77  and  _78
REMARK   31  A    between atoms: _77  and  _80
REMARK   32  A    between atoms: _80  and  _81
REMARK   33  A    between atoms: _85  and  _86
REMARK   34  A    between atoms: _91  and  _93
REMARK   35  A    between atoms: _93  and  _94
REMARK   36  A    between atoms: _93  and  _96
REMARK   37  A    between atoms: _96  and  _97
REMARK   38  A    between atoms: _100  and  _102
REMARK   39  A    between atoms: _102  and  _103
REMARK   40  A    between atoms: _102  and  _105
REMARK   41  A    between atoms: _105  and  _106
REMARK   42  A    between atoms: _106  and  _107
REMARK   43  A    between atoms: _110  and  _112
REMARK   44  A    between atoms: _112  and  _113
REMARK   45  A    between atoms: _112  and  _115
REMARK   46  A    between atoms: _118  and  _120
REMARK   47  A    between atoms: _120  and  _121
REMARK   48  A    between atoms: _120  and  _123
REMARK   49  A    between atoms: _123  and  _124
REMARK   50  A    between atoms: _129  and  _130
REMARK   51  A    between atoms: _132  and  _134
REMARK   52  A    between atoms: _134  and  _135
REMARK   53  A    between atoms: _134  and  _137
REMARK   54  A    between atoms: _137  and  _138
REMARK   55  A    between atoms: _141  and  _143
REMARK   56  A    between atoms: _143  and  _144
REMARK   57  A    between atoms: _143  and  _146
REMARK   58  A    between atoms: _146  and  _147
REMARK   59  A    between atoms: _147  and  _148
REMARK   60  A    between atoms: _150  and  _152
REMARK   61  A    between atoms: _152  and  _153
REMARK   62  A    between atoms: _152  and  _155
REMARK   63  A    between atoms: _155  and  _156
REMARK   64  A    between atoms: _159  and  _161
REMARK   65  A    between atoms: _161  and  _162
REMARK   66  A    between atoms: _161  and  _164
REMARK   67  A    between atoms: _164  and  _165
REMARK   68  A    between atoms: _168  and  _170
REMARK   69  A    between atoms: _170  and  _171
REMARK   70  A    between atoms: _170  and  _173
REMARK   71  A    between atoms: _175  and  _177
REMARK   72  A    between atoms: _177  and  _178
REMARK   73  A    between atoms: _177  and  _180
REMARK   74  A    between atoms: _180  and  _181
REMARK   75  A    between atoms: _186  and  _188
REMARK   76  A    between atoms: _188  and  _189
REMARK   77  A    between atoms: _192  and  _194
REMARK   78  A    between atoms: _194  and  _195
REMARK   79  A    between atoms: _194  and  _197
REMARK   80  A    between atoms: _197  and  _198
REMARK   81  A    between atoms: _201  and  _203
REMARK   82  A    between atoms: _203  and  _204
REMARK   83  A    between atoms: _203  and  _206
REMARK   84  A    between atoms: _206  and  _207
REMARK   85  A    between atoms: _207  and  _208
REMARK   86  A    between atoms: _211  and  _213
REMARK   87  A    between atoms: _213  and  _214
REMARK   88  A    between atoms: _213  and  _216
REMARK   89  A    between atoms: _216  and  _217
REMARK   90  A    between atoms: _222  and  _223
REMARK   91  A    between atoms: _225  and  _227
REMARK   92  A    between atoms: _227  and  _228
REMARK   93  A    between atoms: _227  and  _230
REMARK   94  A    between atoms: _230  and  _231
REMARK   95  A    between atoms: _236  and  _238
REMARK   96  A    between atoms: _238  and  _239
REMARK   97  A    between atoms: _241  and  _243
REMARK   98  A    between atoms: _243  and  _244
REMARK   99  A    between atoms: _243  and  _246
REMARK  100  A    between atoms: _246  and  _247
REMARK  101  A    between atoms: _250  and  _252
REMARK  102  A    between atoms: _252  and  _253
REMARK  103  A    between atoms: _252  and  _255
REMARK  104  A    between atoms: _255  and  _256
REMARK  105  A    between atoms: _259  and  _261
REMARK  106  A    between atoms: _261  and  _262
REMARK  107  A    between atoms: _261  and  _264
REMARK  108  A    between atoms: _264  and  _265
REMARK  109  A    between atoms: _265  and  _266
REMARK  110  A    between atoms: _266  and  _267
REMARK  111  A    between atoms: _276  and  _278
REMARK  112  A    between atoms: _278  and  _279
REMARK  113  A    between atoms: _278  and  _281
REMARK  114  A    between atoms: _281  and  _282
REMARK  115  A    between atoms: _282  and  _283
REMARK  116  A    between atoms: _283  and  _284
REMARK  117  A    between atoms: _293  and  _295
REMARK  118  A    between atoms: _295  and  _296
REMARK                            x       y       z     vdW  Elec       q    Type
REMARK                         _______ _______ _______ _____ _____    ______ ____
ROOT
ATOM      1  O   HOH     1      24.236  48.439  -7.127  0.00  0.00    +0.000 OA
ENDROOT
TORSDOF 0
REMARK  Name = ../refined-set-2016/4qsv/4qsv_pocket.pdb
REMARK  118 active torsions:
REMARK  status: ('A' for Active; 'I' for Inactive)
REMARK    1  A    between atoms: _1  and  _3
REMARK    2  A    between atoms: _3  and  _4
REMARK    3  A    between atoms: _3  and  _6
REMARK    4  A    between atoms: _6  and  _7
REMARK    5  A    between atoms: _7  and  _8
REMARK    6  A    between atoms: _8  and  _9
REMARK    7  A    between atoms: _18  and  _20
REMARK    8  A    between atoms: _20  and  _21
REMARK    9  A    between atoms: _20  and  _23
REMARK   10  A    between atoms: _26  and  _28
REMARK   11  A    between atoms: _28  and  _29
REMARK   12  A    between atoms: _28  and  _31
REMARK   13  A    between atoms: _31  and  _32
REMARK   14  A    between atoms: _38  and  _40
REMARK   15  A    between atoms: _40  and  _41
REMARK   16  A    between atoms: _40  and  _43
REMARK   17  A    between atoms: _43  and  _44
REMARK   18  A    between atoms: _47  and  _49
REMARK   19  A    between atoms: _49  and  _50
REMARK   20  A    between atoms: _49  and  _52
REMARK   21  A    between atoms: _52  and  _53
REMARK   22  A    between atoms: _53  and  _54
REMARK   23  A    between atoms: _54  and  _55
REMARK   24  A    between atoms: _55  and  _56
REMARK   25  A    between atoms: _61  and  _62
REMARK   26  A    between atoms: _67  and  _69
REMARK   27  A    between atoms: _69  and  _70
REMARK   28  A    between atoms: _69  and  _72
REMARK   29  A    between atoms: _75  and  _77
REMARK   30  A    between atoms: _77  and  _78
REMARK   31  A    between atoms: _77  and  _80
REMARK   32  A    between atoms: _80  and  _81
REMARK   33  A    between atoms: _85  and  _86
REMARK   34  A    between atoms: _91  and  _93
REMARK   35  A    between atoms: _93  and  _94
REMARK   36  A    between atoms: _93  and  _96
REMARK   37  A    between atoms: _96  and  _97
REMARK   38  A    between atoms: _100  and  _102
REMARK   39  A    between atoms: _102  and  _103
REMARK   40  A    between atoms: _102  and  _105
REMARK   41  A    between atoms: _105  and  _106
REMARK   42  A    between atoms: _106  and  _107
REMARK   43  A    between atoms: _110  and  _112
REMARK   44  A    between atoms: _112  and  _113
REMARK   45  A    between atoms: _112  and  _115
REMARK   46  A    between atoms: _118  and  _120
REMARK   47  A    between atoms: _120  and  _121
REMARK   48  A    between atoms: _120  and  _123
REMARK   49  A    between atoms: _123  and  _124
REMARK   50  A    between atoms: _129  and  _130
REMARK   51  A    between atoms: _132  and  _134
REMARK   52  A    between atoms: _134  and  _135
REMARK   53  A    between atoms: _134  and  _137
REMARK   54  A    between atoms: _137  and  _138
REMARK   55  A    between atoms: _141  and  _143
REMARK   56  A    between atoms: _143  and  _144
REMARK   57  A    between atoms: _143  and  _146
REMARK   58  A    between atoms: _146  and  _147
REMARK   59  A    between atoms: _147  and  _148
REMARK   60  A    between atoms: _150  and  _152
REMARK   61  A    between atoms: _152  and  _153
REMARK   62  A    between atoms: _152  and  _155
REMARK   63  A    between atoms: _155  and  _156
REMARK   64  A    between atoms: _159  and  _161
REMARK   65  A    between atoms: _161  and  _162
REMARK   66  A    between atoms: _161  and  _164
REMARK   67  A    between atoms: _164  and  _165
REMARK   68  A    between atoms: _168  and  _170
REMARK   69  A    between atoms: _170  and  _171
REMARK   70  A    between atoms: _170  and  _173
REMARK   71  A    between atoms: _175  and  _177
REMARK   72  A    between atoms: _177  and  _178
REMARK   73  A    between atoms: _177  and  _180
REMARK   74  A    between atoms: _180  and  _181
REMARK   75  A    between atoms: _186  and  _188
REMARK   76  A    between atoms: _188  and  _189
REMARK   77  A    between atoms: _192  and  _194
REMARK   78  A    between atoms: _194  and  _195
REMARK   79  A    between atoms: _194  and  _197
REMARK   80  A    between atoms: _197  and  _198
REMARK   81  A    between atoms: _201  and  _203
REMARK   82  A    between atoms: _203  and  _204
REMARK   83  A    between atoms: _203  and  _206
REMARK   84  A    between atoms: _206  and  _207
REMARK   85  A    between atoms: _207  and  _208
REMARK   86  A    between atoms: _211  and  _213
REMARK   87  A    between atoms: _213  and  _214
REMARK   88  A    between atoms: _213  and  _216
REMARK   89  A    between atoms: _216  and  _217
REMARK   90  A    between atoms: _222  and  _223
REMARK   91  A    between atoms: _225  and  _227
REMARK   92  A    between atoms: _227  and  _228
REMARK   93  A    between atoms: _227  and  _230
REMARK   94  A    between atoms: _230  and  _231
REMARK   95  A    between atoms: _236  and  _238
REMARK   96  A    between atoms: _238  and  _239
REMARK   97  A    between atoms: _241  and  _243
REMARK   98  A    between atoms: _243  and  _244
REMARK   99  A    between atoms: _243  and  _246
REMARK  100  A    between atoms: _246  and  _247
REMARK  101  A    between atoms: _250  and  _252
REMARK  102  A    between atoms: _252  and  _253
REMARK  103  A    between atoms: _252  and  _255
REMARK  104  A    between atoms: _255  and  _256
REMARK  105  A    between atoms: _259  and  _261
REMARK  106  A    between atoms: _261  and  _262
REMARK  107  A    between atoms: _261  and  _264
REMARK  108  A    between atoms: _264  and  _265
REMARK  109  A    between atoms: _265  and  _266
REMARK  110  A    between atoms: _266  and  _267
REMARK  111  A    between atoms: _276  and  _278
REMARK  112  A    between atoms: _278  and  _279
REMARK  113  A    between atoms: _278  and  _281
REMARK  114  A    between atoms: _281  and  _282
REMARK  115  A    between atoms: _282  and  _283
REMARK  116  A    between atoms: _283  and  _284
REMARK  117  A    between atoms: _293  and  _295
REMARK  118  A    between atoms: _295  and  _296
REMARK                            x       y       z     vdW  Elec       q    Type
REMARK                         _______ _______ _______ _____ _____    ______ ____
ROOT
ATOM      1  O   HOH     1      30.056  39.489 -18.034  0.00  0.00    +0.000 OA
ENDROOT
TORSDOF 0
REMARK  Name = ../refined-set-2016/4qsv/4qsv_pocket.pdb
REMARK  118 active torsions:
REMARK  status: ('A' for Active; 'I' for Inactive)
REMARK    1  A    between atoms: _1  and  _3
REMARK    2  A    between atoms: _3  and  _4
REMARK    3  A    between atoms: _3  and  _6
REMARK    4  A    between atoms: _6  and  _7
REMARK    5  A    between atoms: _7  and  _8
REMARK    6  A    between atoms: _8  and  _9
REMARK    7  A    between atoms: _18  and  _20
REMARK    8  A    between atoms: _20  and  _21
REMARK    9  A    between atoms: _20  and  _23
REMARK   10  A    between atoms: _26  and  _28
REMARK   11  A    between atoms: _28  and  _29
REMARK   12  A    between atoms: _28  and  _31
REMARK   13  A    between atoms: _31  and  _32
REMARK   14  A    between atoms: _38  and  _40
REMARK   15  A    between atoms: _40  and  _41
REMARK   16  A    between atoms: _40  and  _43
REMARK   17  A    between atoms: _43  and  _44
REMARK   18  A    between atoms: _47  and  _49
REMARK   19  A    between atoms: _49  and  _50
REMARK   20  A    between atoms: _49  and  _52
REMARK   21  A    between atoms: _52  and  _53
REMARK   22  A    between atoms: _53  and  _54
REMARK   23  A    between atoms: _54  and  _55
REMARK   24  A    between atoms: _55  and  _56
REMARK   25  A    between atoms: _61  and  _62
REMARK   26  A    between atoms: _67  and  _69
REMARK   27  A    between atoms: _69  and  _70
REMARK   28  A    between atoms: _69  and  _72
REMARK   29  A    between atoms: _75  and  _77
REMARK   30  A    between atoms: _77  and  _78
REMARK   31  A    between atoms: _77  and  _80
REMARK   32  A    between atoms: _80  and  _81
REMARK   33  A    between atoms: _85  and  _86
REMARK   34  A    between atoms: _91  and  _93
REMARK   35  A    between atoms: _93  and  _94
REMARK   36  A    between atoms: _93  and  _96
REMARK   37  A    between atoms: _96  and  _97
REMARK   38  A    between atoms: _100  and  _102
REMARK   39  A    between atoms: _102  and  _103
REMARK   40  A    between atoms: _102  and  _105
REMARK   41  A    between atoms: _105  and  _106
REMARK   42  A    between atoms: _106  and  _107
REMARK   43  A    between atoms: _110  and  _112
REMARK   44  A    between atoms: _112  and  _113
REMARK   45  A    between atoms: _112  and  _115
REMARK   46  A    between atoms: _118  and  _120
REMARK   47  A    between atoms: _120  and  _121
REMARK   48  A    between atoms: _120  and  _123
REMARK   49  A    between atoms: _123  and  _124
REMARK   50  A    between atoms: _129  and  _130
REMARK   51  A    between atoms: _132  and  _134
REMARK   52  A    between atoms: _134  and  _135
REMARK   53  A    between atoms: _134  and  _137
REMARK   54  A    between atoms: _137  and  _138
REMARK   55  A    between atoms: _141  and  _143
REMARK   56  A    between atoms: _143  and  _144
REMARK   57  A    between atoms: _143  and  _146
REMARK   58  A    between atoms: _146  and  _147
REMARK   59  A    between atoms: _147  and  _148
REMARK   60  A    between atoms: _150  and  _152
REMARK   61  A    between atoms: _152  and  _153
REMARK   62  A    between atoms: _152  and  _155
REMARK   63  A    between atoms: _155  and  _156
REMARK   64  A    between atoms: _159  and  _161
REMARK   65  A    between atoms: _161  and  _162
REMARK   66  A    between atoms: _161  and  _164
REMARK   67  A    between atoms: _164  and  _165
REMARK   68  A    between atoms: _168  and  _170
REMARK   69  A    between atoms: _170  and  _171
REMARK   70  A    between atoms: _170  and  _173
REMARK   71  A    between atoms: _175  and  _177
REMARK   72  A    between atoms: _177  and  _178
REMARK   73  A    between atoms: _177  and  _180
REMARK   74  A    between atoms: _180  and  _181
REMARK   75  A    between atoms: _186  and  _188
REMARK   76  A    between atoms: _188  and  _189
REMARK   77  A    between atoms: _192  and  _194
REMARK   78  A    between atoms: _194  and  _195
REMARK   79  A    between atoms: _194  and  _197
REMARK   80  A    between atoms: _197  and  _198
REMARK   81  A    between atoms: _201  and  _203
REMARK   82  A    between atoms: _203  and  _204
REMARK   83  A    between atoms: _203  and  _206
REMARK   84  A    between atoms: _206  and  _207
REMARK   85  A    between atoms: _207  and  _208
REMARK   86  A    between atoms: _211  and  _213
REMARK   87  A    between atoms: _213  and  _214
REMARK   88  A    between atoms: _213  and  _216
REMARK   89  A    between atoms: _216  and  _217
REMARK   90  A    between atoms: _222  and  _223
REMARK   91  A    between atoms: _225  and  _227
REMARK   92  A    between atoms: _227  and  _228
REMARK   93  A    between atoms: _227  and  _230
REMARK   94  A    between atoms: _230  and  _231
REMARK   95  A    between atoms: _236  and  _238
REMARK   96  A    between atoms: _238  and  _239
REMARK   97  A    between atoms: _241  and  _243
REMARK   98  A    between atoms: _243  and  _244
REMARK   99  A    between atoms: _243  and  _246
REMARK  100  A    between atoms: _246  and  _247
REMARK  101  A    between atoms: _250  and  _252
REMARK  102  A    between atoms: _252  and  _253
REMARK  103  A    between atoms: _252  and  _255
REMARK  104  A    between atoms: _255  and  _256
REMARK  105  A    between atoms: _259  and  _261
REMARK  106  A    between atoms: _261  and  _262
REMARK  107  A    between atoms: _261  and  _264
REMARK  108  A    between atoms: _264  and  _265
REMARK  109  A    between atoms: _265  and  _266
REMARK  110  A    between atoms: _266  and  _267
REMARK  111  A    between atoms: _276  and  _278
REMARK  112  A    between atoms: _278  and  _279
REMARK  113  A    between atoms: _278  and  _281
REMARK  114  A    between atoms: _281  and  _282
REMARK  115  A    between atoms: _282  and  _283
REMARK  116  A    between atoms: _283  and  _284
REMARK  117  A    between atoms: _293  and  _295
REMARK  118  A    between atoms: _295  and  _296
REMARK                            x       y       z     vdW  Elec       q    Type
REMARK                         _______ _______ _______ _____ _____    ______ ____
ROOT
ATOM      1  O   HOH     1      28.696  41.440  -6.150  0.00  0.00    +0.000 OA
ENDROOT
TORSDOF 0
REMARK  Name = ../refined-set-2016/4qsv/4qsv_pocket.pdb
REMARK  118 active torsions:
REMARK  status: ('A' for Active; 'I' for Inactive)
REMARK    1  A    between atoms: _1  and  _3
REMARK    2  A    between atoms: _3  and  _4
REMARK    3  A    between atoms: _3  and  _6
REMARK    4  A    between atoms: _6  and  _7
REMARK    5  A    between atoms: _7  and  _8
REMARK    6  A    between atoms: _8  and  _9
REMARK    7  A    between atoms: _18  and  _20
REMARK    8  A    between atoms: _20  and  _21
REMARK    9  A    between atoms: _20  and  _23
REMARK   10  A    between atoms: _26  and  _28
REMARK   11  A    between atoms: _28  and  _29
REMARK   12  A    between atoms: _28  and  _31
REMARK   13  A    between atoms: _31  and  _32
REMARK   14  A    between atoms: _38  and  _40
REMARK   15  A    between atoms: _40  and  _41
REMARK   16  A    between atoms: _40  and  _43
REMARK   17  A    between atoms: _43  and  _44
REMARK   18  A    between atoms: _47  and  _49
REMARK   19  A    between atoms: _49  and  _50
REMARK   20  A    between atoms: _49  and  _52
REMARK   21  A    between atoms: _52  and  _53
REMARK   22  A    between atoms: _53  and  _54
REMARK   23  A    between atoms: _54  and  _55
REMARK   24  A    between atoms: _55  and  _56
REMARK   25  A    between atoms: _61  and  _62
REMARK   26  A    between atoms: _67  and  _69
REMARK   27  A    between atoms: _69  and  _70
REMARK   28  A    between atoms: _69  and  _72
REMARK   29  A    between atoms: _75  and  _77
REMARK   30  A    between atoms: _77  and  _78
REMARK   31  A    between atoms: _77  and  _80
REMARK   32  A    between atoms: _80  and  _81
REMARK   33  A    between atoms: _85  and  _86
REMARK   34  A    between atoms: _91  and  _93
REMARK   35  A    between atoms: _93  and  _94
REMARK   36  A    between atoms: _93  and  _96
REMARK   37  A    between atoms: _96  and  _97
REMARK   38  A    between atoms: _100  and  _102
REMARK   39  A    between atoms: _102  and  _103
REMARK   40  A    between atoms: _102  and  _105
REMARK   41  A    between atoms: _105  and  _106
REMARK   42  A    between atoms: _106  and  _107
REMARK   43  A    between atoms: _110  and  _112
REMARK   44  A    between atoms: _112  and  _113
REMARK   45  A    between atoms: _112  and  _115
REMARK   46  A    between atoms: _118  and  _120
REMARK   47  A    between atoms: _120  and  _121
REMARK   48  A    between atoms: _120  and  _123
REMARK   49  A    between atoms: _123  and  _124
REMARK   50  A    between atoms: _129  and  _130
REMARK   51  A    between atoms: _132  and  _134
REMARK   52  A    between atoms: _134  and  _135
REMARK   53  A    between atoms: _134  and  _137
REMARK   54  A    between atoms: _137  and  _138
REMARK   55  A    between atoms: _141  and  _143
REMARK   56  A    between atoms: _143  and  _144
REMARK   57  A    between atoms: _143  and  _146
REMARK   58  A    between atoms: _146  and  _147
REMARK   59  A    between atoms: _147  and  _148
REMARK   60  A    between atoms: _150  and  _152
REMARK   61  A    between atoms: _152  and  _153
REMARK   62  A    between atoms: _152  and  _155
REMARK   63  A    between atoms: _155  and  _156
REMARK   64  A    between atoms: _159  and  _161
REMARK   65  A    between atoms: _161  and  _162
REMARK   66  A    between atoms: _161  and  _164
REMARK   67  A    between atoms: _164  and  _165
REMARK   68  A    between atoms: _168  and  _170
REMARK   69  A    between atoms: _170  and  _171
REMARK   70  A    between atoms: _170  and  _173
REMARK   71  A    between atoms: _175  and  _177
REMARK   72  A    between atoms: _177  and  _178
REMARK   73  A    between atoms: _177  and  _180
REMARK   74  A    between atoms: _180  and  _181
REMARK   75  A    between atoms: _186  and  _188
REMARK   76  A    between atoms: _188  and  _189
REMARK   77  A    between atoms: _192  and  _194
REMARK   78  A    between atoms: _194  and  _195
REMARK   79  A    between atoms: _194  and  _197
REMARK   80  A    between atoms: _197  and  _198
REMARK   81  A    between atoms: _201  and  _203
REMARK   82  A    between atoms: _203  and  _204
REMARK   83  A    between atoms: _203  and  _206
REMARK   84  A    between atoms: _206  and  _207
REMARK   85  A    between atoms: _207  and  _208
REMARK   86  A    between atoms: _211  and  _213
REMARK   87  A    between atoms: _213  and  _214
REMARK   88  A    between atoms: _213  and  _216
REMARK   89  A    between atoms: _216  and  _217
REMARK   90  A    between atoms: _222  and  _223
REMARK   91  A    between atoms: _225  and  _227
REMARK   92  A    between atoms: _227  and  _228
REMARK   93  A    between atoms: _227  and  _230
REMARK   94  A    between atoms: _230  and  _231
REMARK   95  A    between atoms: _236  and  _238
REMARK   96  A    between atoms: _238  and  _239
REMARK   97  A    between atoms: _241  and  _243
REMARK   98  A    between atoms: _243  and  _244
REMARK   99  A    between atoms: _243  and  _246
REMARK  100  A    between atoms: _246  and  _247
REMARK  101  A    between atoms: _250  and  _252
REMARK  102  A    between atoms: _252  and  _253
REMARK  103  A    between atoms: _252  and  _255
REMARK  104  A    between atoms: _255  and  _256
REMARK  105  A    between atoms: _259  and  _261
REMARK  106  A    between atoms: _261  and  _262
REMARK  107  A    between atoms: _261  and  _264
REMARK  108  A    between atoms: _264  and  _265
REMARK  109  A    between atoms: _265  and  _266
REMARK  110  A    between atoms: _266  and  _267
REMARK  111  A    between atoms: _276  and  _278
REMARK  112  A    between atoms: _278  and  _279
REMARK  113  A    between atoms: _278  and  _281
REMARK  114  A    between atoms: _281  and  _282
REMARK  115  A    between atoms: _282  and  _283
REMARK  116  A    between atoms: _283  and  _284
REMARK  117  A    between atoms: _293  and  _295
REMARK  118  A    between atoms: _295  and  _296
REMARK                            x       y       z     vdW  Elec       q    Type
REMARK                         _______ _______ _______ _____ _____    ______ ____
ROOT
ATOM      1  O   HOH     1      28.936  42.156 -17.475  0.00  0.00    +0.000 OA
ENDROOT
TORSDOF 0
REMARK  Name = ../refined-set-2016/4qsv/4qsv_pocket.pdb
REMARK  118 active torsions:
REMARK  status: ('A' for Active; 'I' for Inactive)
REMARK    1  A    between atoms: _1  and  _3
REMARK    2  A    between atoms: _3  and  _4
REMARK    3  A    between atoms: _3  and  _6
REMARK    4  A    between atoms: _6  and  _7
REMARK    5  A    between atoms: _7  and  _8
REMARK    6  A    between atoms: _8  and  _9
REMARK    7  A    between atoms: _18  and  _20
REMARK    8  A    between atoms: _20  and  _21
REMARK    9  A    between atoms: _20  and  _23
REMARK   10  A    between atoms: _26  and  _28
REMARK   11  A    between atoms: _28  and  _29
REMARK   12  A    between atoms: _28  and  _31
REMARK   13  A    between atoms: _31  and  _32
REMARK   14  A    between atoms: _38  and  _40
REMARK   15  A    between atoms: _40  and  _41
REMARK   16  A    between atoms: _40  and  _43
REMARK   17  A    between atoms: _43  and  _44
REMARK   18  A    between atoms: _47  and  _49
REMARK   19  A    between atoms: _49  and  _50
REMARK   20  A    between atoms: _49  and  _52
REMARK   21  A    between atoms: _52  and  _53
REMARK   22  A    between atoms: _53  and  _54
REMARK   23  A    between atoms: _54  and  _55
REMARK   24  A    between atoms: _55  and  _56
REMARK   25  A    between atoms: _61  and  _62
REMARK   26  A    between atoms: _67  and  _69
REMARK   27  A    between atoms: _69  and  _70
REMARK   28  A    between atoms: _69  and  _72
REMARK   29  A    between atoms: _75  and  _77
REMARK   30  A    between atoms: _77  and  _78
REMARK   31  A    between atoms: _77  and  _80
REMARK   32  A    between atoms: _80  and  _81
REMARK   33  A    between atoms: _85  and  _86
REMARK   34  A    between atoms: _91  and  _93
REMARK   35  A    between atoms: _93  and  _94
REMARK   36  A    between atoms: _93  and  _96
REMARK   37  A    between atoms: _96  and  _97
REMARK   38  A    between atoms: _100  and  _102
REMARK   39  A    between atoms: _102  and  _103
REMARK   40  A    between atoms: _102  and  _105
REMARK   41  A    between atoms: _105  and  _106
REMARK   42  A    between atoms: _106  and  _107
REMARK   43  A    between atoms: _110  and  _112
REMARK   44  A    between atoms: _112  and  _113
REMARK   45  A    between atoms: _112  and  _115
REMARK   46  A    between atoms: _118  and  _120
REMARK   47  A    between atoms: _120  and  _121
REMARK   48  A    between atoms: _120  and  _123
REMARK   49  A    between atoms: _123  and  _124
REMARK   50  A    between atoms: _129  and  _130
REMARK   51  A    between atoms: _132  and  _134
REMARK   52  A    between atoms: _134  and  _135
REMARK   53  A    between atoms: _134  and  _137
REMARK   54  A    between atoms: _137  and  _138
REMARK   55  A    between atoms: _141  and  _143
REMARK   56  A    between atoms: _143  and  _144
REMARK   57  A    between atoms: _143  and  _146
REMARK   58  A    between atoms: _146  and  _147
REMARK   59  A    between atoms: _147  and  _148
REMARK   60  A    between atoms: _150  and  _152
REMARK   61  A    between atoms: _152  and  _153
REMARK   62  A    between atoms: _152  and  _155
REMARK   63  A    between atoms: _155  and  _156
REMARK   64  A    between atoms: _159  and  _161
REMARK   65  A    between atoms: _161  and  _162
REMARK   66  A    between atoms: _161  and  _164
REMARK   67  A    between atoms: _164  and  _165
REMARK   68  A    between atoms: _168  and  _170
REMARK   69  A    between atoms: _170  and  _171
REMARK   70  A    between atoms: _170  and  _173
REMARK   71  A    between atoms: _175  and  _177
REMARK   72  A    between atoms: _177  and  _178
REMARK   73  A    between atoms: _177  and  _180
REMARK   74  A    between atoms: _180  and  _181
REMARK   75  A    between atoms: _186  and  _188
REMARK   76  A    between atoms: _188  and  _189
REMARK   77  A    between atoms: _192  and  _194
REMARK   78  A    between atoms: _194  and  _195
REMARK   79  A    between atoms: _194  and  _197
REMARK   80  A    between atoms: _197  and  _198
REMARK   81  A    between atoms: _201  and  _203
REMARK   82  A    between atoms: _203  and  _204
REMARK   83  A    between atoms: _203  and  _206
REMARK   84  A    between atoms: _206  and  _207
REMARK   85  A    between atoms: _207  and  _208
REMARK   86  A    between atoms: _211  and  _213
REMARK   87  A    between atoms: _213  and  _214
REMARK   88  A    between atoms: _213  and  _216
REMARK   89  A    between atoms: _216  and  _217
REMARK   90  A    between atoms: _222  and  _223
REMARK   91  A    between atoms: _225  and  _227
REMARK   92  A    between atoms: _227  and  _228
REMARK   93  A    between atoms: _227  and  _230
REMARK   94  A    between atoms: _230  and  _231
REMARK   95  A    between atoms: _236  and  _238
REMARK   96  A    between atoms: _238  and  _239
REMARK   97  A    between atoms: _241  and  _243
REMARK   98  A    between atoms: _243  and  _244
REMARK   99  A    between atoms: _243  and  _246
REMARK  100  A    between atoms: _246  and  _247
REMARK  101  A    between atoms: _250  and  _252
REMARK  102  A    between atoms: _252  and  _253
REMARK  103  A    between atoms: _252  and  _255
REMARK  104  A    between atoms: _255  and  _256
REMARK  105  A    between atoms: _259  and  _261
REMARK  106  A    between atoms: _261  and  _262
REMARK  107  A    between atoms: _261  and  _264
REMARK  108  A    between atoms: _264  and  _265
REMARK  109  A    between atoms: _265  and  _266
REMARK  110  A    between atoms: _266  and  _267
REMARK  111  A    between atoms: _276  and  _278
REMARK  112  A    between atoms: _278  and  _279
REMARK  113  A    between atoms: _278  and  _281
REMARK  114  A    between atoms: _281  and  _282
REMARK  115  A    between atoms: _282  and  _283
REMARK  116  A    between atoms: _283  and  _284
REMARK  117  A    between atoms: _293  and  _295
REMARK  118  A    between atoms: _295  and  _296
REMARK                            x       y       z     vdW  Elec       q    Type
REMARK                         _______ _______ _______ _____ _____    ______ ____
ROOT
ATOM      1  O   HOH     1      29.439  44.516  -2.262  0.00  0.00    +0.000 OA
ENDROOT
TORSDOF 0
REMARK  Name = ../refined-set-2016/4qsv/4qsv_pocket.pdb
REMARK  118 active torsions:
REMARK  status: ('A' for Active; 'I' for Inactive)
REMARK    1  A    between atoms: _1  and  _3
REMARK    2  A    between atoms: _3  and  _4
REMARK    3  A    between atoms: _3  and  _6
REMARK    4  A    between atoms: _6  and  _7
REMARK    5  A    between atoms: _7  and  _8
REMARK    6  A    between atoms: _8  and  _9
REMARK    7  A    between atoms: _18  and  _20
REMARK    8  A    between atoms: _20  and  _21
REMARK    9  A    between atoms: _20  and  _23
REMARK   10  A    between atoms: _26  and  _28
REMARK   11  A    between atoms: _28  and  _29
REMARK   12  A    between atoms: _28  and  _31
REMARK   13  A    between atoms: _31  and  _32
REMARK   14  A    between atoms: _38  and  _40
REMARK   15  A    between atoms: _40  and  _41
REMARK   16  A    between atoms: _40  and  _43
REMARK   17  A    between atoms: _43  and  _44
REMARK   18  A    between atoms: _47  and  _49
REMARK   19  A    between atoms: _49  and  _50
REMARK   20  A    between atoms: _49  and  _52
REMARK   21  A    between atoms: _52  and  _53
REMARK   22  A    between atoms: _53  and  _54
REMARK   23  A    between atoms: _54  and  _55
REMARK   24  A    between atoms: _55  and  _56
REMARK   25  A    between atoms: _61  and  _62
REMARK   26  A    between atoms: _67  and  _69
REMARK   27  A    between atoms: _69  and  _70
REMARK   28  A    between atoms: _69  and  _72
REMARK   29  A    between atoms: _75  and  _77
REMARK   30  A    between atoms: _77  and  _78
REMARK   31  A    between atoms: _77  and  _80
REMARK   32  A    between atoms: _80  and  _81
REMARK   33  A    between atoms: _85  and  _86
REMARK   34  A    between atoms: _91  and  _93
REMARK   35  A    between atoms: _93  and  _94
REMARK   36  A    between atoms: _93  and  _96
REMARK   37  A    between atoms: _96  and  _97
REMARK   38  A    between atoms: _100  and  _102
REMARK   39  A    between atoms: _102  and  _103
REMARK   40  A    between atoms: _102  and  _105
REMARK   41  A    between atoms: _105  and  _106
REMARK   42  A    between atoms: _106  and  _107
REMARK   43  A    between atoms: _110  and  _112
REMARK   44  A    between atoms: _112  and  _113
REMARK   45  A    between atoms: _112  and  _115
REMARK   46  A    between atoms: _118  and  _120
REMARK   47  A    between atoms: _120  and  _121
REMARK   48  A    between atoms: _120  and  _123
REMARK   49  A    between atoms: _123  and  _124
REMARK   50  A    between atoms: _129  and  _130
REMARK   51  A    between atoms: _132  and  _134
REMARK   52  A    between atoms: _134  and  _135
REMARK   53  A    between atoms: _134  and  _137
REMARK   54  A    between atoms: _137  and  _138
REMARK   55  A    between atoms: _141  and  _143
REMARK   56  A    between atoms: _143  and  _144
REMARK   57  A    between atoms: _143  and  _146
REMARK   58  A    between atoms: _146  and  _147
REMARK   59  A    between atoms: _147  and  _148
REMARK   60  A    between atoms: _150  and  _152
REMARK   61  A    between atoms: _152  and  _153
REMARK   62  A    between atoms: _152  and  _155
REMARK   63  A    between atoms: _155  and  _156
REMARK   64  A    between atoms: _159  and  _161
REMARK   65  A    between atoms: _161  and  _162
REMARK   66  A    between atoms: _161  and  _164
REMARK   67  A    between atoms: _164  and  _165
REMARK   68  A    between atoms: _168  and  _170
REMARK   69  A    between atoms: _170  and  _171
REMARK   70  A    between atoms: _170  and  _173
REMARK   71  A    between atoms: _175  and  _177
REMARK   72  A    between atoms: _177  and  _178
REMARK   73  A    between atoms: _177  and  _180
REMARK   74  A    between atoms: _180  and  _181
REMARK   75  A    between atoms: _186  and  _188
REMARK   76  A    between atoms: _188  and  _189
REMARK   77  A    between atoms: _192  and  _194
REMARK   78  A    between atoms: _194  and  _195
REMARK   79  A    between atoms: _194  and  _197
REMARK   80  A    between atoms: _197  and  _198
REMARK   81  A    between atoms: _201  and  _203
REMARK   82  A    between atoms: _203  and  _204
REMARK   83  A    between atoms: _203  and  _206
REMARK   84  A    between atoms: _206  and  _207
REMARK   85  A    between atoms: _207  and  _208
REMARK   86  A    between atoms: _211  and  _213
REMARK   87  A    between atoms: _213  and  _214
REMARK   88  A    between atoms: _213  and  _216
REMARK   89  A    between atoms: _216  and  _217
REMARK   90  A    between atoms: _222  and  _223
REMARK   91  A    between atoms: _225  and  _227
REMARK   92  A    between atoms: _227  and  _228
REMARK   93  A    between atoms: _227  and  _230
REMARK   94  A    between atoms: _230  and  _231
REMARK   95  A    between atoms: _236  and  _238
REMARK   96  A    between atoms: _238  and  _239
REMARK   97  A    between atoms: _241  and  _243
REMARK   98  A    between atoms: _243  and  _244
REMARK   99  A    between atoms: _243  and  _246
REMARK  100  A    between atoms: _246  and  _247
REMARK  101  A    between atoms: _250  and  _252
REMARK  102  A    between atoms: _252  and  _253
REMARK  103  A    between atoms: _252  and  _255
REMARK  104  A    between atoms: _255  and  _256
REMARK  105  A    between atoms: _259  and  _261
REMARK  106  A    between atoms: _261  and  _262
REMARK  107  A    between atoms: _261  and  _264
REMARK  108  A    between atoms: _264  and  _265
REMARK  109  A    between atoms: _265  and  _266
REMARK  110  A    between atoms: _266  and  _267
REMARK  111  A    between atoms: _276  and  _278
REMARK  112  A    between atoms: _278  and  _279
REMARK  113  A    between atoms: _278  and  _281
REMARK  114  A    between atoms: _281  and  _282
REMARK  115  A    between atoms: _282  and  _283
REMARK  116  A    between atoms: _283  and  _284
REMARK  117  A    between atoms: _293  and  _295
REMARK  118  A    between atoms: _295  and  _296
REMARK                            x       y       z     vdW  Elec       q    Type
REMARK                         _______ _______ _______ _____ _____    ______ ____
ROOT
ATOM      1  O   HOH     1      19.960  42.562  -9.865  0.00  0.00    +0.000 OA
ENDROOT
TORSDOF 0
REMARK  Name = ../refined-set-2016/4qsv/4qsv_pocket.pdb
REMARK  118 active torsions:
REMARK  status: ('A' for Active; 'I' for Inactive)
REMARK    1  A    between atoms: _1  and  _3
REMARK    2  A    between atoms: _3  and  _4
REMARK    3  A    between atoms: _3  and  _6
REMARK    4  A    between atoms: _6  and  _7
REMARK    5  A    between atoms: _7  and  _8
REMARK    6  A    between atoms: _8  and  _9
REMARK    7  A    between atoms: _18  and  _20
REMARK    8  A    between atoms: _20  and  _21
REMARK    9  A    between atoms: _20  and  _23
REMARK   10  A    between atoms: _26  and  _28
REMARK   11  A    between atoms: _28  and  _29
REMARK   12  A    between atoms: _28  and  _31
REMARK   13  A    between atoms: _31  and  _32
REMARK   14  A    between atoms: _38  and  _40
REMARK   15  A    between atoms: _40  and  _41
REMARK   16  A    between atoms: _40  and  _43
REMARK   17  A    between atoms: _43  and  _44
REMARK   18  A    between atoms: _47  and  _49
REMARK   19  A    between atoms: _49  and  _50
REMARK   20  A    between atoms: _49  and  _52
REMARK   21  A    between atoms: _52  and  _53
REMARK   22  A    between atoms: _53  and  _54
REMARK   23  A    between atoms: _54  and  _55
REMARK   24  A    between atoms: _55  and  _56
REMARK   25  A    between atoms: _61  and  _62
REMARK   26  A    between atoms: _67  and  _69
REMARK   27  A    between atoms: _69  and  _70
REMARK   28  A    between atoms: _69  and  _72
REMARK   29  A    between atoms: _75  and  _77
REMARK   30  A    between atoms: _77  and  _78
REMARK   31  A    between atoms: _77  and  _80
REMARK   32  A    between atoms: _80  and  _81
REMARK   33  A    between atoms: _85  and  _86
REMARK   34  A    between atoms: _91  and  _93
REMARK   35  A    between atoms: _93  and  _94
REMARK   36  A    between atoms: _93  and  _96
REMARK   37  A    between atoms: _96  and  _97
REMARK   38  A    between atoms: _100  and  _102
REMARK   39  A    between atoms: _102  and  _103
REMARK   40  A    between atoms: _102  and  _105
REMARK   41  A    between atoms: _105  and  _106
REMARK   42  A    between atoms: _106  and  _107
REMARK   43  A    between atoms: _110  and  _112
REMARK   44  A    between atoms: _112  and  _113
REMARK   45  A    between atoms: _112  and  _115
REMARK   46  A    between atoms: _118  and  _120
REMARK   47  A    between atoms: _120  and  _121
REMARK   48  A    between atoms: _120  and  _123
REMARK   49  A    between atoms: _123  and  _124
REMARK   50  A    between atoms: _129  and  _130
REMARK   51  A    between atoms: _132  and  _134
REMARK   52  A    between atoms: _134  and  _135
REMARK   53  A    between atoms: _134  and  _137
REMARK   54  A    between atoms: _137  and  _138
REMARK   55  A    between atoms: _141  and  _143
REMARK   56  A    between atoms: _143  and  _144
REMARK   57  A    between atoms: _143  and  _146
REMARK   58  A    between atoms: _146  and  _147
REMARK   59  A    between atoms: _147  and  _148
REMARK   60  A    between atoms: _150  and  _152
REMARK   61  A    between atoms: _152  and  _153
REMARK   62  A    between atoms: _152  and  _155
REMARK   63  A    between atoms: _155  and  _156
REMARK   64  A    between atoms: _159  and  _161
REMARK   65  A    between atoms: _161  and  _162
REMARK   66  A    between atoms: _161  and  _164
REMARK   67  A    between atoms: _164  and  _165
REMARK   68  A    between atoms: _168  and  _170
REMARK   69  A    between atoms: _170  and  _171
REMARK   70  A    between atoms: _170  and  _173
REMARK   71  A    between atoms: _175  and  _177
REMARK   72  A    between atoms: _177  and  _178
REMARK   73  A    between atoms: _177  and  _180
REMARK   74  A    between atoms: _180  and  _181
REMARK   75  A    between atoms: _186  and  _188
REMARK   76  A    between atoms: _188  and  _189
REMARK   77  A    between atoms: _192  and  _194
REMARK   78  A    between atoms: _194  and  _195
REMARK   79  A    between atoms: _194  and  _197
REMARK   80  A    between atoms: _197  and  _198
REMARK   81  A    between atoms: _201  and  _203
REMARK   82  A    between atoms: _203  and  _204
REMARK   83  A    between atoms: _203  and  _206
REMARK   84  A    between atoms: _206  and  _207
REMARK   85  A    between atoms: _207  and  _208
REMARK   86  A    between atoms: _211  and  _213
REMARK   87  A    between atoms: _213  and  _214
REMARK   88  A    between atoms: _213  and  _216
REMARK   89  A    between atoms: _216  and  _217
REMARK   90  A    between atoms: _222  and  _223
REMARK   91  A    between atoms: _225  and  _227
REMARK   92  A    between atoms: _227  and  _228
REMARK   93  A    between atoms: _227  and  _230
REMARK   94  A    between atoms: _230  and  _231
REMARK   95  A    between atoms: _236  and  _238
REMARK   96  A    between atoms: _238  and  _239
REMARK   97  A    between atoms: _241  and  _243
REMARK   98  A    between atoms: _243  and  _244
REMARK   99  A    between atoms: _243  and  _246
REMARK  100  A    between atoms: _246  and  _247
REMARK  101  A    between atoms: _250  and  _252
REMARK  102  A    between atoms: _252  and  _253
REMARK  103  A    between atoms: _252  and  _255
REMARK  104  A    between atoms: _255  and  _256
REMARK  105  A    between atoms: _259  and  _261
REMARK  106  A    between atoms: _261  and  _262
REMARK  107  A    between atoms: _261  and  _264
REMARK  108  A    between atoms: _264  and  _265
REMARK  109  A    between atoms: _265  and  _266
REMARK  110  A    between atoms: _266  and  _267
REMARK  111  A    between atoms: _276  and  _278
REMARK  112  A    between atoms: _278  and  _279
REMARK  113  A    between atoms: _278  and  _281
REMARK  114  A    between atoms: _281  and  _282
REMARK  115  A    between atoms: _282  and  _283
REMARK  116  A    between atoms: _283  and  _284
REMARK  117  A    between atoms: _293  and  _295
REMARK  118  A    between atoms: _295  and  _296
REMARK                            x       y       z     vdW  Elec       q    Type
REMARK                         _______ _______ _______ _____ _____    ______ ____
ROOT
ATOM      1  O   HOH     1      19.669  44.608  -8.249  0.00  0.00    +0.000 OA
ENDROOT
TORSDOF 0
REMARK  Name = ../refined-set-2016/4qsv/4qsv_pocket.pdb
REMARK  118 active torsions:
REMARK  status: ('A' for Active; 'I' for Inactive)
REMARK    1  A    between atoms: _1  and  _3
REMARK    2  A    between atoms: _3  and  _4
REMARK    3  A    between atoms: _3  and  _6
REMARK    4  A    between atoms: _6  and  _7
REMARK    5  A    between atoms: _7  and  _8
REMARK    6  A    between atoms: _8  and  _9
REMARK    7  A    between atoms: _18  and  _20
REMARK    8  A    between atoms: _20  and  _21
REMARK    9  A    between atoms: _20  and  _23
REMARK   10  A    between atoms: _26  and  _28
REMARK   11  A    between atoms: _28  and  _29
REMARK   12  A    between atoms: _28  and  _31
REMARK   13  A    between atoms: _31  and  _32
REMARK   14  A    between atoms: _38  and  _40
REMARK   15  A    between atoms: _40  and  _41
REMARK   16  A    between atoms: _40  and  _43
REMARK   17  A    between atoms: _43  and  _44
REMARK   18  A    between atoms: _47  and  _49
REMARK   19  A    between atoms: _49  and  _50
REMARK   20  A    between atoms: _49  and  _52
REMARK   21  A    between atoms: _52  and  _53
REMARK   22  A    between atoms: _53  and  _54
REMARK   23  A    between atoms: _54  and  _55
REMARK   24  A    between atoms: _55  and  _56
REMARK   25  A    between atoms: _61  and  _62
REMARK   26  A    between atoms: _67  and  _69
REMARK   27  A    between atoms: _69  and  _70
REMARK   28  A    between atoms: _69  and  _72
REMARK   29  A    between atoms: _75  and  _77
REMARK   30  A    between atoms: _77  and  _78
REMARK   31  A    between atoms: _77  and  _80
REMARK   32  A    between atoms: _80  and  _81
REMARK   33  A    between atoms: _85  and  _86
REMARK   34  A    between atoms: _91  and  _93
REMARK   35  A    between atoms: _93  and  _94
REMARK   36  A    between atoms: _93  and  _96
REMARK   37  A    between atoms: _96  and  _97
REMARK   38  A    between atoms: _100  and  _102
REMARK   39  A    between atoms: _102  and  _103
REMARK   40  A    between atoms: _102  and  _105
REMARK   41  A    between atoms: _105  and  _106
REMARK   42  A    between atoms: _106  and  _107
REMARK   43  A    between atoms: _110  and  _112
REMARK   44  A    between atoms: _112  and  _113
REMARK   45  A    between atoms: _112  and  _115
REMARK   46  A    between atoms: _118  and  _120
REMARK   47  A    between atoms: _120  and  _121
REMARK   48  A    between atoms: _120  and  _123
REMARK   49  A    between atoms: _123  and  _124
REMARK   50  A    between atoms: _129  and  _130
REMARK   51  A    between atoms: _132  and  _134
REMARK   52  A    between atoms: _134  and  _135
REMARK   53  A    between atoms: _134  and  _137
REMARK   54  A    between atoms: _137  and  _138
REMARK   55  A    between atoms: _141  and  _143
REMARK   56  A    between atoms: _143  and  _144
REMARK   57  A    between atoms: _143  and  _146
REMARK   58  A    between atoms: _146  and  _147
REMARK   59  A    between atoms: _147  and  _148
REMARK   60  A    between atoms: _150  and  _152
REMARK   61  A    between atoms: _152  and  _153
REMARK   62  A    between atoms: _152  and  _155
REMARK   63  A    between atoms: _155  and  _156
REMARK   64  A    between atoms: _159  and  _161
REMARK   65  A    between atoms: _161  and  _162
REMARK   66  A    between atoms: _161  and  _164
REMARK   67  A    between atoms: _164  and  _165
REMARK   68  A    between atoms: _168  and  _170
REMARK   69  A    between atoms: _170  and  _171
REMARK   70  A    between atoms: _170  and  _173
REMARK   71  A    between atoms: _175  and  _177
REMARK   72  A    between atoms: _177  and  _178
REMARK   73  A    between atoms: _177  and  _180
REMARK   74  A    between atoms: _180  and  _181
REMARK   75  A    between atoms: _186  and  _188
REMARK   76  A    between atoms: _188  and  _189
REMARK   77  A    between atoms: _192  and  _194
REMARK   78  A    between atoms: _194  and  _195
REMARK   79  A    between atoms: _194  and  _197
REMARK   80  A    between atoms: _197  and  _198
REMARK   81  A    between atoms: _201  and  _203
REMARK   82  A    between atoms: _203  and  _204
REMARK   83  A    between atoms: _203  and  _206
REMARK   84  A    between atoms: _206  and  _207
REMARK   85  A    between atoms: _207  and  _208
REMARK   86  A    between atoms: _211  and  _213
REMARK   87  A    between atoms: _213  and  _214
REMARK   88  A    between atoms: _213  and  _216
REMARK   89  A    between atoms: _216  and  _217
REMARK   90  A    between atoms: _222  and  _223
REMARK   91  A    between atoms: _225  and  _227
REMARK   92  A    between atoms: _227  and  _228
REMARK   93  A    between atoms: _227  and  _230
REMARK   94  A    between atoms: _230  and  _231
REMARK   95  A    between atoms: _236  and  _238
REMARK   96  A    between atoms: _238  and  _239
REMARK   97  A    between atoms: _241  and  _243
REMARK   98  A    between atoms: _243  and  _244
REMARK   99  A    between atoms: _243  and  _246
REMARK  100  A    between atoms: _246  and  _247
REMARK  101  A    between atoms: _250  and  _252
REMARK  102  A    between atoms: _252  and  _253
REMARK  103  A    between atoms: _252  and  _255
REMARK  104  A    between atoms: _255  and  _256
REMARK  105  A    between atoms: _259  and  _261
REMARK  106  A    between atoms: _261  and  _262
REMARK  107  A    between atoms: _261  and  _264
REMARK  108  A    between atoms: _264  and  _265
REMARK  109  A    between atoms: _265  and  _266
REMARK  110  A    between atoms: _266  and  _267
REMARK  111  A    between atoms: _276  and  _278
REMARK  112  A    between atoms: _278  and  _279
REMARK  113  A    between atoms: _278  and  _281
REMARK  114  A    between atoms: _281  and  _282
REMARK  115  A    between atoms: _282  and  _283
REMARK  116  A    between atoms: _283  and  _284
REMARK  117  A    between atoms: _293  and  _295
REMARK  118  A    between atoms: _295  and  _296
REMARK                            x       y       z     vdW  Elec       q    Type
REMARK                         _______ _______ _______ _____ _____    ______ ____
ROOT
ATOM      1  O   HOH     1      21.002  46.701  -8.498  0.00  0.00    +0.000 OA
ENDROOT
TORSDOF 0
REMARK  Name = ../refined-set-2016/4qsv/4qsv_pocket.pdb
REMARK  118 active torsions:
REMARK  status: ('A' for Active; 'I' for Inactive)
REMARK    1  A    between atoms: _1  and  _3
REMARK    2  A    between atoms: _3  and  _4
REMARK    3  A    between atoms: _3  and  _6
REMARK    4  A    between atoms: _6  and  _7
REMARK    5  A    between atoms: _7  and  _8
REMARK    6  A    between atoms: _8  and  _9
REMARK    7  A    between atoms: _18  and  _20
REMARK    8  A    between atoms: _20  and  _21
REMARK    9  A    between atoms: _20  and  _23
REMARK   10  A    between atoms: _26  and  _28
REMARK   11  A    between atoms: _28  and  _29
REMARK   12  A    between atoms: _28  and  _31
REMARK   13  A    between atoms: _31  and  _32
REMARK   14  A    between atoms: _38  and  _40
REMARK   15  A    between atoms: _40  and  _41
REMARK   16  A    between atoms: _40  and  _43
REMARK   17  A    between atoms: _43  and  _44
REMARK   18  A    between atoms: _47  and  _49
REMARK   19  A    between atoms: _49  and  _50
REMARK   20  A    between atoms: _49  and  _52
REMARK   21  A    between atoms: _52  and  _53
REMARK   22  A    between atoms: _53  and  _54
REMARK   23  A    between atoms: _54  and  _55
REMARK   24  A    between atoms: _55  and  _56
REMARK   25  A    between atoms: _61  and  _62
REMARK   26  A    between atoms: _67  and  _69
REMARK   27  A    between atoms: _69  and  _70
REMARK   28  A    between atoms: _69  and  _72
REMARK   29  A    between atoms: _75  and  _77
REMARK   30  A    between atoms: _77  and  _78
REMARK   31  A    between atoms: _77  and  _80
REMARK   32  A    between atoms: _80  and  _81
REMARK   33  A    between atoms: _85  and  _86
REMARK   34  A    between atoms: _91  and  _93
REMARK   35  A    between atoms: _93  and  _94
REMARK   36  A    between atoms: _93  and  _96
REMARK   37  A    between atoms: _96  and  _97
REMARK   38  A    between atoms: _100  and  _102
REMARK   39  A    between atoms: _102  and  _103
REMARK   40  A    between atoms: _102  and  _105
REMARK   41  A    between atoms: _105  and  _106
REMARK   42  A    between atoms: _106  and  _107
REMARK   43  A    between atoms: _110  and  _112
REMARK   44  A    between atoms: _112  and  _113
REMARK   45  A    between atoms: _112  and  _115
REMARK   46  A    between atoms: _118  and  _120
REMARK   47  A    between atoms: _120  and  _121
REMARK   48  A    between atoms: _120  and  _123
REMARK   49  A    between atoms: _123  and  _124
REMARK   50  A    between atoms: _129  and  _130
REMARK   51  A    between atoms: _132  and  _134
REMARK   52  A    between atoms: _134  and  _135
REMARK   53  A    between atoms: _134  and  _137
REMARK   54  A    between atoms: _137  and  _138
REMARK   55  A    between atoms: _141  and  _143
REMARK   56  A    between atoms: _143  and  _144
REMARK   57  A    between atoms: _143  and  _146
REMARK   58  A    between atoms: _146  and  _147
REMARK   59  A    between atoms: _147  and  _148
REMARK   60  A    between atoms: _150  and  _152
REMARK   61  A    between atoms: _152  and  _153
REMARK   62  A    between atoms: _152  and  _155
REMARK   63  A    between atoms: _155  and  _156
REMARK   64  A    between atoms: _159  and  _161
REMARK   65  A    between atoms: _161  and  _162
REMARK   66  A    between atoms: _161  and  _164
REMARK   67  A    between atoms: _164  and  _165
REMARK   68  A    between atoms: _168  and  _170
REMARK   69  A    between atoms: _170  and  _171
REMARK   70  A    between atoms: _170  and  _173
REMARK   71  A    between atoms: _175  and  _177
REMARK   72  A    between atoms: _177  and  _178
REMARK   73  A    between atoms: _177  and  _180
REMARK   74  A    between atoms: _180  and  _181
REMARK   75  A    between atoms: _186  and  _188
REMARK   76  A    between atoms: _188  and  _189
REMARK   77  A    between atoms: _192  and  _194
REMARK   78  A    between atoms: _194  and  _195
REMARK   79  A    between atoms: _194  and  _197
REMARK   80  A    between atoms: _197  and  _198
REMARK   81  A    between atoms: _201  and  _203
REMARK   82  A    between atoms: _203  and  _204
REMARK   83  A    between atoms: _203  and  _206
REMARK   84  A    between atoms: _206  and  _207
REMARK   85  A    between atoms: _207  and  _208
REMARK   86  A    between atoms: _211  and  _213
REMARK   87  A    between atoms: _213  and  _214
REMARK   88  A    between atoms: _213  and  _216
REMARK   89  A    between atoms: _216  and  _217
REMARK   90  A    between atoms: _222  and  _223
REMARK   91  A    between atoms: _225  and  _227
REMARK   92  A    between atoms: _227  and  _228
REMARK   93  A    between atoms: _227  and  _230
REMARK   94  A    between atoms: _230  and  _231
REMARK   95  A    between atoms: _236  and  _238
REMARK   96  A    between atoms: _238  and  _239
REMARK   97  A    between atoms: _241  and  _243
REMARK   98  A    between atoms: _243  and  _244
REMARK   99  A    between atoms: _243  and  _246
REMARK  100  A    between atoms: _246  and  _247
REMARK  101  A    between atoms: _250  and  _252
REMARK  102  A    between atoms: _252  and  _253
REMARK  103  A    between atoms: _252  and  _255
REMARK  104  A    between atoms: _255  and  _256
REMARK  105  A    between atoms: _259  and  _261
REMARK  106  A    between atoms: _261  and  _262
REMARK  107  A    between atoms: _261  and  _264
REMARK  108  A    between atoms: _264  and  _265
REMARK  109  A    between atoms: _265  and  _266
REMARK  110  A    between atoms: _266  and  _267
REMARK  111  A    between atoms: _276  and  _278
REMARK  112  A    between atoms: _278  and  _279
REMARK  113  A    between atoms: _278  and  _281
REMARK  114  A    between atoms: _281  and  _282
REMARK  115  A    between atoms: _282  and  _283
REMARK  116  A    between atoms: _283  and  _284
REMARK  117  A    between atoms: _293  and  _295
REMARK  118  A    between atoms: _295  and  _296
REMARK                            x       y       z     vdW  Elec       q    Type
REMARK                         _______ _______ _______ _____ _____    ______ ____
ROOT
ATOM      1  O   HOH     1      18.931  47.510 -10.665  0.00  0.00    +0.000 OA
ENDROOT
TORSDOF 0
REMARK  Name = ../refined-set-2016/4qsv/4qsv_pocket.pdb
REMARK  118 active torsions:
REMARK  status: ('A' for Active; 'I' for Inactive)
REMARK    1  A    between atoms: _1  and  _3
REMARK    2  A    between atoms: _3  and  _4
REMARK    3  A    between atoms: _3  and  _6
REMARK    4  A    between atoms: _6  and  _7
REMARK    5  A    between atoms: _7  and  _8
REMARK    6  A    between atoms: _8  and  _9
REMARK    7  A    between atoms: _18  and  _20
REMARK    8  A    between atoms: _20  and  _21
REMARK    9  A    between atoms: _20  and  _23
REMARK   10  A    between atoms: _26  and  _28
REMARK   11  A    between atoms: _28  and  _29
REMARK   12  A    between atoms: _28  and  _31
REMARK   13  A    between atoms: _31  and  _32
REMARK   14  A    between atoms: _38  and  _40
REMARK   15  A    between atoms: _40  and  _41
REMARK   16  A    between atoms: _40  and  _43
REMARK   17  A    between atoms: _43  and  _44
REMARK   18  A    between atoms: _47  and  _49
REMARK   19  A    between atoms: _49  and  _50
REMARK   20  A    between atoms: _49  and  _52
REMARK   21  A    between atoms: _52  and  _53
REMARK   22  A    between atoms: _53  and  _54
REMARK   23  A    between atoms: _54  and  _55
REMARK   24  A    between atoms: _55  and  _56
REMARK   25  A    between atoms: _61  and  _62
REMARK   26  A    between atoms: _67  and  _69
REMARK   27  A    between atoms: _69  and  _70
REMARK   28  A    between atoms: _69  and  _72
REMARK   29  A    between atoms: _75  and  _77
REMARK   30  A    between atoms: _77  and  _78
REMARK   31  A    between atoms: _77  and  _80
REMARK   32  A    between atoms: _80  and  _81
REMARK   33  A    between atoms: _85  and  _86
REMARK   34  A    between atoms: _91  and  _93
REMARK   35  A    between atoms: _93  and  _94
REMARK   36  A    between atoms: _93  and  _96
REMARK   37  A    between atoms: _96  and  _97
REMARK   38  A    between atoms: _100  and  _102
REMARK   39  A    between atoms: _102  and  _103
REMARK   40  A    between atoms: _102  and  _105
REMARK   41  A    between atoms: _105  and  _106
REMARK   42  A    between atoms: _106  and  _107
REMARK   43  A    between atoms: _110  and  _112
REMARK   44  A    between atoms: _112  and  _113
REMARK   45  A    between atoms: _112  and  _115
REMARK   46  A    between atoms: _118  and  _120
REMARK   47  A    between atoms: _120  and  _121
REMARK   48  A    between atoms: _120  and  _123
REMARK   49  A    between atoms: _123  and  _124
REMARK   50  A    between atoms: _129  and  _130
REMARK   51  A    between atoms: _132  and  _134
REMARK   52  A    between atoms: _134  and  _135
REMARK   53  A    between atoms: _134  and  _137
REMARK   54  A    between atoms: _137  and  _138
REMARK   55  A    between atoms: _141  and  _143
REMARK   56  A    between atoms: _143  and  _144
REMARK   57  A    between atoms: _143  and  _146
REMARK   58  A    between atoms: _146  and  _147
REMARK   59  A    between atoms: _147  and  _148
REMARK   60  A    between atoms: _150  and  _152
REMARK   61  A    between atoms: _152  and  _153
REMARK   62  A    between atoms: _152  and  _155
REMARK   63  A    between atoms: _155  and  _156
REMARK   64  A    between atoms: _159  and  _161
REMARK   65  A    between atoms: _161  and  _162
REMARK   66  A    between atoms: _161  and  _164
REMARK   67  A    between atoms: _164  and  _165
REMARK   68  A    between atoms: _168  and  _170
REMARK   69  A    between atoms: _170  and  _171
REMARK   70  A    between atoms: _170  and  _173
REMARK   71  A    between atoms: _175  and  _177
REMARK   72  A    between atoms: _177  and  _178
REMARK   73  A    between atoms: _177  and  _180
REMARK   74  A    between atoms: _180  and  _181
REMARK   75  A    between atoms: _186  and  _188
REMARK   76  A    between atoms: _188  and  _189
REMARK   77  A    between atoms: _192  and  _194
REMARK   78  A    between atoms: _194  and  _195
REMARK   79  A    between atoms: _194  and  _197
REMARK   80  A    between atoms: _197  and  _198
REMARK   81  A    between atoms: _201  and  _203
REMARK   82  A    between atoms: _203  and  _204
REMARK   83  A    between atoms: _203  and  _206
REMARK   84  A    between atoms: _206  and  _207
REMARK   85  A    between atoms: _207  and  _208
REMARK   86  A    between atoms: _211  and  _213
REMARK   87  A    between atoms: _213  and  _214
REMARK   88  A    between atoms: _213  and  _216
REMARK   89  A    between atoms: _216  and  _217
REMARK   90  A    between atoms: _222  and  _223
REMARK   91  A    between atoms: _225  and  _227
REMARK   92  A    between atoms: _227  and  _228
REMARK   93  A    between atoms: _227  and  _230
REMARK   94  A    between atoms: _230  and  _231
REMARK   95  A    between atoms: _236  and  _238
REMARK   96  A    between atoms: _238  and  _239
REMARK   97  A    between atoms: _241  and  _243
REMARK   98  A    between atoms: _243  and  _244
REMARK   99  A    between atoms: _243  and  _246
REMARK  100  A    between atoms: _246  and  _247
REMARK  101  A    between atoms: _250  and  _252
REMARK  102  A    between atoms: _252  and  _253
REMARK  103  A    between atoms: _252  and  _255
REMARK  104  A    between atoms: _255  and  _256
REMARK  105  A    between atoms: _259  and  _261
REMARK  106  A    between atoms: _261  and  _262
REMARK  107  A    between atoms: _261  and  _264
REMARK  108  A    between atoms: _264  and  _265
REMARK  109  A    between atoms: _265  and  _266
REMARK  110  A    between atoms: _266  and  _267
REMARK  111  A    between atoms: _276  and  _278
REMARK  112  A    between atoms: _278  and  _279
REMARK  113  A    between atoms: _278  and  _281
REMARK  114  A    between atoms: _281  and  _282
REMARK  115  A    between atoms: _282  and  _283
REMARK  116  A    between atoms: _283  and  _284
REMARK  117  A    between atoms: _293  and  _295
REMARK  118  A    between atoms: _295  and  _296
REMARK                            x       y       z     vdW  Elec       q    Type
REMARK                         _______ _______ _______ _____ _____    ______ ____
ROOT
ATOM      1  O   HOH     1      27.834  48.090  -3.874  0.00  0.00    +0.000 OA
ENDROOT
TORSDOF 0
REMARK  Name = ../refined-set-2016/4qsv/4qsv_pocket.pdb
REMARK  118 active torsions:
REMARK  status: ('A' for Active; 'I' for Inactive)
REMARK    1  A    between atoms: _1  and  _3
REMARK    2  A    between atoms: _3  and  _4
REMARK    3  A    between atoms: _3  and  _6
REMARK    4  A    between atoms: _6  and  _7
REMARK    5  A    between atoms: _7  and  _8
REMARK    6  A    between atoms: _8  and  _9
REMARK    7  A    between atoms: _18  and  _20
REMARK    8  A    between atoms: _20  and  _21
REMARK    9  A    between atoms: _20  and  _23
REMARK   10  A    between atoms: _26  and  _28
REMARK   11  A    between atoms: _28  and  _29
REMARK   12  A    between atoms: _28  and  _31
REMARK   13  A    between atoms: _31  and  _32
REMARK   14  A    between atoms: _38  and  _40
REMARK   15  A    between atoms: _40  and  _41
REMARK   16  A    between atoms: _40  and  _43
REMARK   17  A    between atoms: _43  and  _44
REMARK   18  A    between atoms: _47  and  _49
REMARK   19  A    between atoms: _49  and  _50
REMARK   20  A    between atoms: _49  and  _52
REMARK   21  A    between atoms: _52  and  _53
REMARK   22  A    between atoms: _53  and  _54
REMARK   23  A    between atoms: _54  and  _55
REMARK   24  A    between atoms: _55  and  _56
REMARK   25  A    between atoms: _61  and  _62
REMARK   26  A    between atoms: _67  and  _69
REMARK   27  A    between atoms: _69  and  _70
REMARK   28  A    between atoms: _69  and  _72
REMARK   29  A    between atoms: _75  and  _77
REMARK   30  A    between atoms: _77  and  _78
REMARK   31  A    between atoms: _77  and  _80
REMARK   32  A    between atoms: _80  and  _81
REMARK   33  A    between atoms: _85  and  _86
REMARK   34  A    between atoms: _91  and  _93
REMARK   35  A    between atoms: _93  and  _94
REMARK   36  A    between atoms: _93  and  _96
REMARK   37  A    between atoms: _96  and  _97
REMARK   38  A    between atoms: _100  and  _102
REMARK   39  A    between atoms: _102  and  _103
REMARK   40  A    between atoms: _102  and  _105
REMARK   41  A    between atoms: _105  and  _106
REMARK   42  A    between atoms: _106  and  _107
REMARK   43  A    between atoms: _110  and  _112
REMARK   44  A    between atoms: _112  and  _113
REMARK   45  A    between atoms: _112  and  _115
REMARK   46  A    between atoms: _118  and  _120
REMARK   47  A    between atoms: _120  and  _121
REMARK   48  A    between atoms: _120  and  _123
REMARK   49  A    between atoms: _123  and  _124
REMARK   50  A    between atoms: _129  and  _130
REMARK   51  A    between atoms: _132  and  _134
REMARK   52  A    between atoms: _134  and  _135
REMARK   53  A    between atoms: _134  and  _137
REMARK   54  A    between atoms: _137  and  _138
REMARK   55  A    between atoms: _141  and  _143
REMARK   56  A    between atoms: _143  and  _144
REMARK   57  A    between atoms: _143  and  _146
REMARK   58  A    between atoms: _146  and  _147
REMARK   59  A    between atoms: _147  and  _148
REMARK   60  A    between atoms: _150  and  _152
REMARK   61  A    between atoms: _152  and  _153
REMARK   62  A    between atoms: _152  and  _155
REMARK   63  A    between atoms: _155  and  _156
REMARK   64  A    between atoms: _159  and  _161
REMARK   65  A    between atoms: _161  and  _162
REMARK   66  A    between atoms: _161  and  _164
REMARK   67  A    between atoms: _164  and  _165
REMARK   68  A    between atoms: _168  and  _170
REMARK   69  A    between atoms: _170  and  _171
REMARK   70  A    between atoms: _170  and  _173
REMARK   71  A    between atoms: _175  and  _177
REMARK   72  A    between atoms: _177  and  _178
REMARK   73  A    between atoms: _177  and  _180
REMARK   74  A    between atoms: _180  and  _181
REMARK   75  A    between atoms: _186  and  _188
REMARK   76  A    between atoms: _188  and  _189
REMARK   77  A    between atoms: _192  and  _194
REMARK   78  A    between atoms: _194  and  _195
REMARK   79  A    between atoms: _194  and  _197
REMARK   80  A    between atoms: _197  and  _198
REMARK   81  A    between atoms: _201  and  _203
REMARK   82  A    between atoms: _203  and  _204
REMARK   83  A    between atoms: _203  and  _206
REMARK   84  A    between atoms: _206  and  _207
REMARK   85  A    between atoms: _207  and  _208
REMARK   86  A    between atoms: _211  and  _213
REMARK   87  A    between atoms: _213  and  _214
REMARK   88  A    between atoms: _213  and  _216
REMARK   89  A    between atoms: _216  and  _217
REMARK   90  A    between atoms: _222  and  _223
REMARK   91  A    between atoms: _225  and  _227
REMARK   92  A    between atoms: _227  and  _228
REMARK   93  A    between atoms: _227  and  _230
REMARK   94  A    between atoms: _230  and  _231
REMARK   95  A    between atoms: _236  and  _238
REMARK   96  A    between atoms: _238  and  _239
REMARK   97  A    between atoms: _241  and  _243
REMARK   98  A    between atoms: _243  and  _244
REMARK   99  A    between atoms: _243  and  _246
REMARK  100  A    between atoms: _246  and  _247
REMARK  101  A    between atoms: _250  and  _252
REMARK  102  A    between atoms: _252  and  _253
REMARK  103  A    between atoms: _252  and  _255
REMARK  104  A    between atoms: _255  and  _256
REMARK  105  A    between atoms: _259  and  _261
REMARK  106  A    between atoms: _261  and  _262
REMARK  107  A    between atoms: _261  and  _264
REMARK  108  A    between atoms: _264  and  _265
REMARK  109  A    between atoms: _265  and  _266
REMARK  110  A    between atoms: _266  and  _267
REMARK  111  A    between atoms: _276  and  _278
REMARK  112  A    between atoms: _278  and  _279
REMARK  113  A    between atoms: _278  and  _281
REMARK  114  A    between atoms: _281  and  _282
REMARK  115  A    between atoms: _282  and  _283
REMARK  116  A    between atoms: _283  and  _284
REMARK  117  A    between atoms: _293  and  _295
REMARK  118  A    between atoms: _295  and  _296
REMARK                            x       y       z     vdW  Elec       q    Type
REMARK                         _______ _______ _______ _____ _____    ______ ____
ROOT
ATOM      1  O   HOH     1      25.846  51.342 -10.519  0.00  0.00    +0.000 OA
ENDROOT
TORSDOF 0
REMARK  Name = ../refined-set-2016/4qsv/4qsv_pocket.pdb
REMARK  118 active torsions:
REMARK  status: ('A' for Active; 'I' for Inactive)
REMARK    1  A    between atoms: _1  and  _3
REMARK    2  A    between atoms: _3  and  _4
REMARK    3  A    between atoms: _3  and  _6
REMARK    4  A    between atoms: _6  and  _7
REMARK    5  A    between atoms: _7  and  _8
REMARK    6  A    between atoms: _8  and  _9
REMARK    7  A    between atoms: _18  and  _20
REMARK    8  A    between atoms: _20  and  _21
REMARK    9  A    between atoms: _20  and  _23
REMARK   10  A    between atoms: _26  and  _28
REMARK   11  A    between atoms: _28  and  _29
REMARK   12  A    between atoms: _28  and  _31
REMARK   13  A    between atoms: _31  and  _32
REMARK   14  A    between atoms: _38  and  _40
REMARK   15  A    between atoms: _40  and  _41
REMARK   16  A    between atoms: _40  and  _43
REMARK   17  A    between atoms: _43  and  _44
REMARK   18  A    between atoms: _47  and  _49
REMARK   19  A    between atoms: _49  and  _50
REMARK   20  A    between atoms: _49  and  _52
REMARK   21  A    between atoms: _52  and  _53
REMARK   22  A    between atoms: _53  and  _54
REMARK   23  A    between atoms: _54  and  _55
REMARK   24  A    between atoms: _55  and  _56
REMARK   25  A    between atoms: _61  and  _62
REMARK   26  A    between atoms: _67  and  _69
REMARK   27  A    between atoms: _69  and  _70
REMARK   28  A    between atoms: _69  and  _72
REMARK   29  A    between atoms: _75  and  _77
REMARK   30  A    between atoms: _77  and  _78
REMARK   31  A    between atoms: _77  and  _80
REMARK   32  A    between atoms: _80  and  _81
REMARK   33  A    between atoms: _85  and  _86
REMARK   34  A    between atoms: _91  and  _93
REMARK   35  A    between atoms: _93  and  _94
REMARK   36  A    between atoms: _93  and  _96
REMARK   37  A    between atoms: _96  and  _97
REMARK   38  A    between atoms: _100  and  _102
REMARK   39  A    between atoms: _102  and  _103
REMARK   40  A    between atoms: _102  and  _105
REMARK   41  A    between atoms: _105  and  _106
REMARK   42  A    between atoms: _106  and  _107
REMARK   43  A    between atoms: _110  and  _112
REMARK   44  A    between atoms: _112  and  _113
REMARK   45  A    between atoms: _112  and  _115
REMARK   46  A    between atoms: _118  and  _120
REMARK   47  A    between atoms: _120  and  _121
REMARK   48  A    between atoms: _120  and  _123
REMARK   49  A    between atoms: _123  and  _124
REMARK   50  A    between atoms: _129  and  _130
REMARK   51  A    between atoms: _132  and  _134
REMARK   52  A    between atoms: _134  and  _135
REMARK   53  A    between atoms: _134  and  _137
REMARK   54  A    between atoms: _137  and  _138
REMARK   55  A    between atoms: _141  and  _143
REMARK   56  A    between atoms: _143  and  _144
REMARK   57  A    between atoms: _143  and  _146
REMARK   58  A    between atoms: _146  and  _147
REMARK   59  A    between atoms: _147  and  _148
REMARK   60  A    between atoms: _150  and  _152
REMARK   61  A    between atoms: _152  and  _153
REMARK   62  A    between atoms: _152  and  _155
REMARK   63  A    between atoms: _155  and  _156
REMARK   64  A    between atoms: _159  and  _161
REMARK   65  A    between atoms: _161  and  _162
REMARK   66  A    between atoms: _161  and  _164
REMARK   67  A    between atoms: _164  and  _165
REMARK   68  A    between atoms: _168  and  _170
REMARK   69  A    between atoms: _170  and  _171
REMARK   70  A    between atoms: _170  and  _173
REMARK   71  A    between atoms: _175  and  _177
REMARK   72  A    between atoms: _177  and  _178
REMARK   73  A    between atoms: _177  and  _180
REMARK   74  A    between atoms: _180  and  _181
REMARK   75  A    between atoms: _186  and  _188
REMARK   76  A    between atoms: _188  and  _189
REMARK   77  A    between atoms: _192  and  _194
REMARK   78  A    between atoms: _194  and  _195
REMARK   79  A    between atoms: _194  and  _197
REMARK   80  A    between atoms: _197  and  _198
REMARK   81  A    between atoms: _201  and  _203
REMARK   82  A    between atoms: _203  and  _204
REMARK   83  A    between atoms: _203  and  _206
REMARK   84  A    between atoms: _206  and  _207
REMARK   85  A    between atoms: _207  and  _208
REMARK   86  A    between atoms: _211  and  _213
REMARK   87  A    between atoms: _213  and  _214
REMARK   88  A    between atoms: _213  and  _216
REMARK   89  A    between atoms: _216  and  _217
REMARK   90  A    between atoms: _222  and  _223
REMARK   91  A    between atoms: _225  and  _227
REMARK   92  A    between atoms: _227  and  _228
REMARK   93  A    between atoms: _227  and  _230
REMARK   94  A    between atoms: _230  and  _231
REMARK   95  A    between atoms: _236  and  _238
REMARK   96  A    between atoms: _238  and  _239
REMARK   97  A    between atoms: _241  and  _243
REMARK   98  A    between atoms: _243  and  _244
REMARK   99  A    between atoms: _243  and  _246
REMARK  100  A    between atoms: _246  and  _247
REMARK  101  A    between atoms: _250  and  _252
REMARK  102  A    between atoms: _252  and  _253
REMARK  103  A    between atoms: _252  and  _255
REMARK  104  A    between atoms: _255  and  _256
REMARK  105  A    between atoms: _259  and  _261
REMARK  106  A    between atoms: _261  and  _262
REMARK  107  A    between atoms: _261  and  _264
REMARK  108  A    between atoms: _264  and  _265
REMARK  109  A    between atoms: _265  and  _266
REMARK  110  A    between atoms: _266  and  _267
REMARK  111  A    between atoms: _276  and  _278
REMARK  112  A    between atoms: _278  and  _279
REMARK  113  A    between atoms: _278  and  _281
REMARK  114  A    between atoms: _281  and  _282
REMARK  115  A    between atoms: _282  and  _283
REMARK  116  A    between atoms: _283  and  _284
REMARK  117  A    between atoms: _293  and  _295
REMARK  118  A    between atoms: _295  and  _296
REMARK                            x       y       z     vdW  Elec       q    Type
REMARK                         _______ _______ _______ _____ _____    ______ ____
ROOT
ATOM      1  O   HOH     1      34.548  41.320 -13.581  0.00  0.00    +0.000 OA
ENDROOT
TORSDOF 0
REMARK  Name = ../refined-set-2016/4qsv/4qsv_pocket.pdb
REMARK  118 active torsions:
REMARK  status: ('A' for Active; 'I' for Inactive)
REMARK    1  A    between atoms: _1  and  _3
REMARK    2  A    between atoms: _3  and  _4
REMARK    3  A    between atoms: _3  and  _6
REMARK    4  A    between atoms: _6  and  _7
REMARK    5  A    between atoms: _7  and  _8
REMARK    6  A    between atoms: _8  and  _9
REMARK    7  A    between atoms: _18  and  _20
REMARK    8  A    between atoms: _20  and  _21
REMARK    9  A    between atoms: _20  and  _23
REMARK   10  A    between atoms: _26  and  _28
REMARK   11  A    between atoms: _28  and  _29
REMARK   12  A    between atoms: _28  and  _31
REMARK   13  A    between atoms: _31  and  _32
REMARK   14  A    between atoms: _38  and  _40
REMARK   15  A    between atoms: _40  and  _41
REMARK   16  A    between atoms: _40  and  _43
REMARK   17  A    between atoms: _43  and  _44
REMARK   18  A    between atoms: _47  and  _49
REMARK   19  A    between atoms: _49  and  _50
REMARK   20  A    between atoms: _49  and  _52
REMARK   21  A    between atoms: _52  and  _53
REMARK   22  A    between atoms: _53  and  _54
REMARK   23  A    between atoms: _54  and  _55
REMARK   24  A    between atoms: _55  and  _56
REMARK   25  A    between atoms: _61  and  _62
REMARK   26  A    between atoms: _67  and  _69
REMARK   27  A    between atoms: _69  and  _70
REMARK   28  A    between atoms: _69  and  _72
REMARK   29  A    between atoms: _75  and  _77
REMARK   30  A    between atoms: _77  and  _78
REMARK   31  A    between atoms: _77  and  _80
REMARK   32  A    between atoms: _80  and  _81
REMARK   33  A    between atoms: _85  and  _86
REMARK   34  A    between atoms: _91  and  _93
REMARK   35  A    between atoms: _93  and  _94
REMARK   36  A    between atoms: _93  and  _96
REMARK   37  A    between atoms: _96  and  _97
REMARK   38  A    between atoms: _100  and  _102
REMARK   39  A    between atoms: _102  and  _103
REMARK   40  A    between atoms: _102  and  _105
REMARK   41  A    between atoms: _105  and  _106
REMARK   42  A    between atoms: _106  and  _107
REMARK   43  A    between atoms: _110  and  _112
REMARK   44  A    between atoms: _112  and  _113
REMARK   45  A    between atoms: _112  and  _115
REMARK   46  A    between atoms: _118  and  _120
REMARK   47  A    between atoms: _120  and  _121
REMARK   48  A    between atoms: _120  and  _123
REMARK   49  A    between atoms: _123  and  _124
REMARK   50  A    between atoms: _129  and  _130
REMARK   51  A    between atoms: _132  and  _134
REMARK   52  A    between atoms: _134  and  _135
REMARK   53  A    between atoms: _134  and  _137
REMARK   54  A    between atoms: _137  and  _138
REMARK   55  A    between atoms: _141  and  _143
REMARK   56  A    between atoms: _143  and  _144
REMARK   57  A    between atoms: _143  and  _146
REMARK   58  A    between atoms: _146  and  _147
REMARK   59  A    between atoms: _147  and  _148
REMARK   60  A    between atoms: _150  and  _152
REMARK   61  A    between atoms: _152  and  _153
REMARK   62  A    between atoms: _152  and  _155
REMARK   63  A    between atoms: _155  and  _156
REMARK   64  A    between atoms: _159  and  _161
REMARK   65  A    between atoms: _161  and  _162
REMARK   66  A    between atoms: _161  and  _164
REMARK   67  A    between atoms: _164  and  _165
REMARK   68  A    between atoms: _168  and  _170
REMARK   69  A    between atoms: _170  and  _171
REMARK   70  A    between atoms: _170  and  _173
REMARK   71  A    between atoms: _175  and  _177
REMARK   72  A    between atoms: _177  and  _178
REMARK   73  A    between atoms: _177  and  _180
REMARK   74  A    between atoms: _180  and  _181
REMARK   75  A    between atoms: _186  and  _188
REMARK   76  A    between atoms: _188  and  _189
REMARK   77  A    between atoms: _192  and  _194
REMARK   78  A    between atoms: _194  and  _195
REMARK   79  A    between atoms: _194  and  _197
REMARK   80  A    between atoms: _197  and  _198
REMARK   81  A    between atoms: _201  and  _203
REMARK   82  A    between atoms: _203  and  _204
REMARK   83  A    between atoms: _203  and  _206
REMARK   84  A    between atoms: _206  and  _207
REMARK   85  A    between atoms: _207  and  _208
REMARK   86  A    between atoms: _211  and  _213
REMARK   87  A    between atoms: _213  and  _214
REMARK   88  A    between atoms: _213  and  _216
REMARK   89  A    between atoms: _216  and  _217
REMARK   90  A    between atoms: _222  and  _223
REMARK   91  A    between atoms: _225  and  _227
REMARK   92  A    between atoms: _227  and  _228
REMARK   93  A    between atoms: _227  and  _230
REMARK   94  A    between atoms: _230  and  _231
REMARK   95  A    between atoms: _236  and  _238
REMARK   96  A    between atoms: _238  and  _239
REMARK   97  A    between atoms: _241  and  _243
REMARK   98  A    between atoms: _243  and  _244
REMARK   99  A    between atoms: _243  and  _246
REMARK  100  A    between atoms: _246  and  _247
REMARK  101  A    between atoms: _250  and  _252
REMARK  102  A    between atoms: _252  and  _253
REMARK  103  A    between atoms: _252  and  _255
REMARK  104  A    between atoms: _255  and  _256
REMARK  105  A    between atoms: _259  and  _261
REMARK  106  A    between atoms: _261  and  _262
REMARK  107  A    between atoms: _261  and  _264
REMARK  108  A    between atoms: _264  and  _265
REMARK  109  A    between atoms: _265  and  _266
REMARK  110  A    between atoms: _266  and  _267
REMARK  111  A    between atoms: _276  and  _278
REMARK  112  A    between atoms: _278  and  _279
REMARK  113  A    between atoms: _278  and  _281
REMARK  114  A    between atoms: _281  and  _282
REMARK  115  A    between atoms: _282  and  _283
REMARK  116  A    between atoms: _283  and  _284
REMARK  117  A    between atoms: _293  and  _295
REMARK  118  A    between atoms: _295  and  _296
REMARK                            x       y       z     vdW  Elec       q    Type
REMARK                         _______ _______ _______ _____ _____    ______ ____
ROOT
ATOM      1  O   HOH     1      29.831  43.846  -6.825  0.00  0.00    +0.000 OA
ENDROOT
TORSDOF 0
REMARK  Name = ../refined-set-2016/4qsv/4qsv_pocket.pdb
REMARK  118 active torsions:
REMARK  status: ('A' for Active; 'I' for Inactive)
REMARK    1  A    between atoms: _1  and  _3
REMARK    2  A    between atoms: _3  and  _4
REMARK    3  A    between atoms: _3  and  _6
REMARK    4  A    between atoms: _6  and  _7
REMARK    5  A    between atoms: _7  and  _8
REMARK    6  A    between atoms: _8  and  _9
REMARK    7  A    between atoms: _18  and  _20
REMARK    8  A    between atoms: _20  and  _21
REMARK    9  A    between atoms: _20  and  _23
REMARK   10  A    between atoms: _26  and  _28
REMARK   11  A    between atoms: _28  and  _29
REMARK   12  A    between atoms: _28  and  _31
REMARK   13  A    between atoms: _31  and  _32
REMARK   14  A    between atoms: _38  and  _40
REMARK   15  A    between atoms: _40  and  _41
REMARK   16  A    between atoms: _40  and  _43
REMARK   17  A    between atoms: _43  and  _44
REMARK   18  A    between atoms: _47  and  _49
REMARK   19  A    between atoms: _49  and  _50
REMARK   20  A    between atoms: _49  and  _52
REMARK   21  A    between atoms: _52  and  _53
REMARK   22  A    between atoms: _53  and  _54
REMARK   23  A    between atoms: _54  and  _55
REMARK   24  A    between atoms: _55  and  _56
REMARK   25  A    between atoms: _61  and  _62
REMARK   26  A    between atoms: _67  and  _69
REMARK   27  A    between atoms: _69  and  _70
REMARK   28  A    between atoms: _69  and  _72
REMARK   29  A    between atoms: _75  and  _77
REMARK   30  A    between atoms: _77  and  _78
REMARK   31  A    between atoms: _77  and  _80
REMARK   32  A    between atoms: _80  and  _81
REMARK   33  A    between atoms: _85  and  _86
REMARK   34  A    between atoms: _91  and  _93
REMARK   35  A    between atoms: _93  and  _94
REMARK   36  A    between atoms: _93  and  _96
REMARK   37  A    between atoms: _96  and  _97
REMARK   38  A    between atoms: _100  and  _102
REMARK   39  A    between atoms: _102  and  _103
REMARK   40  A    between atoms: _102  and  _105
REMARK   41  A    between atoms: _105  and  _106
REMARK   42  A    between atoms: _106  and  _107
REMARK   43  A    between atoms: _110  and  _112
REMARK   44  A    between atoms: _112  and  _113
REMARK   45  A    between atoms: _112  and  _115
REMARK   46  A    between atoms: _118  and  _120
REMARK   47  A    between atoms: _120  and  _121
REMARK   48  A    between atoms: _120  and  _123
REMARK   49  A    between atoms: _123  and  _124
REMARK   50  A    between atoms: _129  and  _130
REMARK   51  A    between atoms: _132  and  _134
REMARK   52  A    between atoms: _134  and  _135
REMARK   53  A    between atoms: _134  and  _137
REMARK   54  A    between atoms: _137  and  _138
REMARK   55  A    between atoms: _141  and  _143
REMARK   56  A    between atoms: _143  and  _144
REMARK   57  A    between atoms: _143  and  _146
REMARK   58  A    between atoms: _146  and  _147
REMARK   59  A    between atoms: _147  and  _148
REMARK   60  A    between atoms: _150  and  _152
REMARK   61  A    between atoms: _152  and  _153
REMARK   62  A    between atoms: _152  and  _155
REMARK   63  A    between atoms: _155  and  _156
REMARK   64  A    between atoms: _159  and  _161
REMARK   65  A    between atoms: _161  and  _162
REMARK   66  A    between atoms: _161  and  _164
REMARK   67  A    between atoms: _164  and  _165
REMARK   68  A    between atoms: _168  and  _170
REMARK   69  A    between atoms: _170  and  _171
REMARK   70  A    between atoms: _170  and  _173
REMARK   71  A    between atoms: _175  and  _177
REMARK   72  A    between atoms: _177  and  _178
REMARK   73  A    between atoms: _177  and  _180
REMARK   74  A    between atoms: _180  and  _181
REMARK   75  A    between atoms: _186  and  _188
REMARK   76  A    between atoms: _188  and  _189
REMARK   77  A    between atoms: _192  and  _194
REMARK   78  A    between atoms: _194  and  _195
REMARK   79  A    between atoms: _194  and  _197
REMARK   80  A    between atoms: _197  and  _198
REMARK   81  A    between atoms: _201  and  _203
REMARK   82  A    between atoms: _203  and  _204
REMARK   83  A    between atoms: _203  and  _206
REMARK   84  A    between atoms: _206  and  _207
REMARK   85  A    between atoms: _207  and  _208
REMARK   86  A    between atoms: _211  and  _213
REMARK   87  A    between atoms: _213  and  _214
REMARK   88  A    between atoms: _213  and  _216
REMARK   89  A    between atoms: _216  and  _217
REMARK   90  A    between atoms: _222  and  _223
REMARK   91  A    between atoms: _225  and  _227
REMARK   92  A    between atoms: _227  and  _228
REMARK   93  A    between atoms: _227  and  _230
REMARK   94  A    between atoms: _230  and  _231
REMARK   95  A    between atoms: _236  and  _238
REMARK   96  A    between atoms: _238  and  _239
REMARK   97  A    between atoms: _241  and  _243
REMARK   98  A    between atoms: _243  and  _244
REMARK   99  A    between atoms: _243  and  _246
REMARK  100  A    between atoms: _246  and  _247
REMARK  101  A    between atoms: _250  and  _252
REMARK  102  A    between atoms: _252  and  _253
REMARK  103  A    between atoms: _252  and  _255
REMARK  104  A    between atoms: _255  and  _256
REMARK  105  A    between atoms: _259  and  _261
REMARK  106  A    between atoms: _261  and  _262
REMARK  107  A    between atoms: _261  and  _264
REMARK  108  A    between atoms: _264  and  _265
REMARK  109  A    between atoms: _265  and  _266
REMARK  110  A    between atoms: _266  and  _267
REMARK  111  A    between atoms: _276  and  _278
REMARK  112  A    between atoms: _278  and  _279
REMARK  113  A    between atoms: _278  and  _281
REMARK  114  A    between atoms: _281  and  _282
REMARK  115  A    between atoms: _282  and  _283
REMARK  116  A    between atoms: _283  and  _284
REMARK  117  A    between atoms: _293  and  _295
REMARK  118  A    between atoms: _295  and  _296
REMARK                            x       y       z     vdW  Elec       q    Type
REMARK                         _______ _______ _______ _____ _____    ______ ____
ROOT
ATOM      1  O   HOH     1      32.176  43.294  -4.955  0.00  0.00    +0.000 OA
ENDROOT
TORSDOF 0
REMARK  Name = ../refined-set-2016/4qsv/4qsv_pocket.pdb
REMARK  118 active torsions:
REMARK  status: ('A' for Active; 'I' for Inactive)
REMARK    1  A    between atoms: _1  and  _3
REMARK    2  A    between atoms: _3  and  _4
REMARK    3  A    between atoms: _3  and  _6
REMARK    4  A    between atoms: _6  and  _7
REMARK    5  A    between atoms: _7  and  _8
REMARK    6  A    between atoms: _8  and  _9
REMARK    7  A    between atoms: _18  and  _20
REMARK    8  A    between atoms: _20  and  _21
REMARK    9  A    between atoms: _20  and  _23
REMARK   10  A    between atoms: _26  and  _28
REMARK   11  A    between atoms: _28  and  _29
REMARK   12  A    between atoms: _28  and  _31
REMARK   13  A    between atoms: _31  and  _32
REMARK   14  A    between atoms: _38  and  _40
REMARK   15  A    between atoms: _40  and  _41
REMARK   16  A    between atoms: _40  and  _43
REMARK   17  A    between atoms: _43  and  _44
REMARK   18  A    between atoms: _47  and  _49
REMARK   19  A    between atoms: _49  and  _50
REMARK   20  A    between atoms: _49  and  _52
REMARK   21  A    between atoms: _52  and  _53
REMARK   22  A    between atoms: _53  and  _54
REMARK   23  A    between atoms: _54  and  _55
REMARK   24  A    between atoms: _55  and  _56
REMARK   25  A    between atoms: _61  and  _62
REMARK   26  A    between atoms: _67  and  _69
REMARK   27  A    between atoms: _69  and  _70
REMARK   28  A    between atoms: _69  and  _72
REMARK   29  A    between atoms: _75  and  _77
REMARK   30  A    between atoms: _77  and  _78
REMARK   31  A    between atoms: _77  and  _80
REMARK   32  A    between atoms: _80  and  _81
REMARK   33  A    between atoms: _85  and  _86
REMARK   34  A    between atoms: _91  and  _93
REMARK   35  A    between atoms: _93  and  _94
REMARK   36  A    between atoms: _93  and  _96
REMARK   37  A    between atoms: _96  and  _97
REMARK   38  A    between atoms: _100  and  _102
REMARK   39  A    between atoms: _102  and  _103
REMARK   40  A    between atoms: _102  and  _105
REMARK   41  A    between atoms: _105  and  _106
REMARK   42  A    between atoms: _106  and  _107
REMARK   43  A    between atoms: _110  and  _112
REMARK   44  A    between atoms: _112  and  _113
REMARK   45  A    between atoms: _112  and  _115
REMARK   46  A    between atoms: _118  and  _120
REMARK   47  A    between atoms: _120  and  _121
REMARK   48  A    between atoms: _120  and  _123
REMARK   49  A    between atoms: _123  and  _124
REMARK   50  A    between atoms: _129  and  _130
REMARK   51  A    between atoms: _132  and  _134
REMARK   52  A    between atoms: _134  and  _135
REMARK   53  A    between atoms: _134  and  _137
REMARK   54  A    between atoms: _137  and  _138
REMARK   55  A    between atoms: _141  and  _143
REMARK   56  A    between atoms: _143  and  _144
REMARK   57  A    between atoms: _143  and  _146
REMARK   58  A    between atoms: _146  and  _147
REMARK   59  A    between atoms: _147  and  _148
REMARK   60  A    between atoms: _150  and  _152
REMARK   61  A    between atoms: _152  and  _153
REMARK   62  A    between atoms: _152  and  _155
REMARK   63  A    between atoms: _155  and  _156
REMARK   64  A    between atoms: _159  and  _161
REMARK   65  A    between atoms: _161  and  _162
REMARK   66  A    between atoms: _161  and  _164
REMARK   67  A    between atoms: _164  and  _165
REMARK   68  A    between atoms: _168  and  _170
REMARK   69  A    between atoms: _170  and  _171
REMARK   70  A    between atoms: _170  and  _173
REMARK   71  A    between atoms: _175  and  _177
REMARK   72  A    between atoms: _177  and  _178
REMARK   73  A    between atoms: _177  and  _180
REMARK   74  A    between atoms: _180  and  _181
REMARK   75  A    between atoms: _186  and  _188
REMARK   76  A    between atoms: _188  and  _189
REMARK   77  A    between atoms: _192  and  _194
REMARK   78  A    between atoms: _194  and  _195
REMARK   79  A    between atoms: _194  and  _197
REMARK   80  A    between atoms: _197  and  _198
REMARK   81  A    between atoms: _201  and  _203
REMARK   82  A    between atoms: _203  and  _204
REMARK   83  A    between atoms: _203  and  _206
REMARK   84  A    between atoms: _206  and  _207
REMARK   85  A    between atoms: _207  and  _208
REMARK   86  A    between atoms: _211  and  _213
REMARK   87  A    between atoms: _213  and  _214
REMARK   88  A    between atoms: _213  and  _216
REMARK   89  A    between atoms: _216  and  _217
REMARK   90  A    between atoms: _222  and  _223
REMARK   91  A    between atoms: _225  and  _227
REMARK   92  A    between atoms: _227  and  _228
REMARK   93  A    between atoms: _227  and  _230
REMARK   94  A    between atoms: _230  and  _231
REMARK   95  A    between atoms: _236  and  _238
REMARK   96  A    between atoms: _238  and  _239
REMARK   97  A    between atoms: _241  and  _243
REMARK   98  A    between atoms: _243  and  _244
REMARK   99  A    between atoms: _243  and  _246
REMARK  100  A    between atoms: _246  and  _247
REMARK  101  A    between atoms: _250  and  _252
REMARK  102  A    between atoms: _252  and  _253
REMARK  103  A    between atoms: _252  and  _255
REMARK  104  A    between atoms: _255  and  _256
REMARK  105  A    between atoms: _259  and  _261
REMARK  106  A    between atoms: _261  and  _262
REMARK  107  A    between atoms: _261  and  _264
REMARK  108  A    between atoms: _264  and  _265
REMARK  109  A    between atoms: _265  and  _266
REMARK  110  A    between atoms: _266  and  _267
REMARK  111  A    between atoms: _276  and  _278
REMARK  112  A    between atoms: _278  and  _279
REMARK  113  A    between atoms: _278  and  _281
REMARK  114  A    between atoms: _281  and  _282
REMARK  115  A    between atoms: _282  and  _283
REMARK  116  A    between atoms: _283  and  _284
REMARK  117  A    between atoms: _293  and  _295
REMARK  118  A    between atoms: _295  and  _296
REMARK                            x       y       z     vdW  Elec       q    Type
REMARK                         _______ _______ _______ _____ _____    ______ ____
ROOT
ATOM      1  O   HOH     1      19.278  49.342 -12.125  0.00  0.00    +0.000 OA
ENDROOT
TORSDOF 0
