REMARK  Name = ../refined-set-2016/3v4t/3v4t_pocket.pdb
REMARK  251 active torsions:
REMARK  status: ('A' for Active; 'I' for Inactive)
REMARK    1  A    between atoms: _1  and  _3
REMARK    2  A    between atoms: _3  and  _4
REMARK    3  A    between atoms: _3  and  _6
REMARK    4  A    between atoms: _6  and  _7
REMARK    5  A    between atoms: _7  and  _8
REMARK    6  A    between atoms: _8  and  _9
REMARK    7  A    between atoms: _9  and  _10
REMARK    8  A    between atoms: _16  and  _17
REMARK    9  A    between atoms: _16  and  _19
REMARK   10  A    between atoms: _19  and  _20
REMARK   11  A    between atoms: _25  and  _27
REMARK   12  A    between atoms: _27  and  _28
REMARK   13  A    between atoms: _31  and  _33
REMARK   14  A    between atoms: _33  and  _34
REMARK   15  A    between atoms: _37  and  _39
REMARK   16  A    between atoms: _39  and  _40
REMARK   17  A    between atoms: _39  and  _42
REMARK   18  A    between atoms: _42  and  _43
REMARK   19  A    between atoms: _47  and  _48
REMARK   20  A    between atoms: _53  and  _55
REMARK   21  A    between atoms: _55  and  _56
REMARK   22  A    between atoms: _55  and  _58
REMARK   23  A    between atoms: _58  and  _59
REMARK   24  A    between atoms: _62  and  _64
REMARK   25  A    between atoms: _64  and  _65
REMARK   26  A    between atoms: _64  and  _67
REMARK   27  A    between atoms: _67  and  _68
REMARK   28  A    between atoms: _68  and  _69
REMARK   29  A    between atoms: _73  and  _74
REMARK   30  A    between atoms: _73  and  _76
REMARK   31  A    between atoms: _76  and  _77
REMARK   32  A    between atoms: _77  and  _78
REMARK   33  A    between atoms: _78  and  _79
REMARK   34  A    between atoms: _88  and  _90
REMARK   35  A    between atoms: _90  and  _91
REMARK   36  A    between atoms: _94  and  _96
REMARK   37  A    between atoms: _96  and  _97
REMARK   38  A    between atoms: _96  and  _99
REMARK   39  A    between atoms: _99  and  _100
REMARK   40  A    between atoms: _102  and  _104
REMARK   41  A    between atoms: _104  and  _105
REMARK   42  A    between atoms: _104  and  _107
REMARK   43  A    between atoms: _107  and  _108
REMARK   44  A    between atoms: _113  and  _114
REMARK   45  A    between atoms: _113  and  _116
REMARK   46  A    between atoms: _116  and  _117
REMARK   47  A    between atoms: _127  and  _129
REMARK   48  A    between atoms: _129  and  _130
REMARK   49  A    between atoms: _129  and  _132
REMARK   50  A    between atoms: _132  and  _133
REMARK   51  A    between atoms: _136  and  _138
REMARK   52  A    between atoms: _138  and  _139
REMARK   53  A    between atoms: _141  and  _143
REMARK   54  A    between atoms: _143  and  _144
REMARK   55  A    between atoms: _147  and  _149
REMARK   56  A    between atoms: _149  and  _150
REMARK   57  A    between atoms: _149  and  _152
REMARK   58  A    between atoms: _152  and  _153
REMARK   59  A    between atoms: _153  and  _154
REMARK   60  A    between atoms: _154  and  _155
REMARK   61  A    between atoms: _165  and  _166
REMARK   62  A    between atoms: _171  and  _173
REMARK   63  A    between atoms: _173  and  _174
REMARK   64  A    between atoms: _173  and  _176
REMARK   65  A    between atoms: _179  and  _181
REMARK   66  A    between atoms: _181  and  _182
REMARK   67  A    between atoms: _181  and  _184
REMARK   68  A    between atoms: _184  and  _185
REMARK   69  A    between atoms: _188  and  _190
REMARK   70  A    between atoms: _190  and  _191
REMARK   71  A    between atoms: _190  and  _193
REMARK   72  A    between atoms: _193  and  _194
REMARK   73  A    between atoms: _197  and  _199
REMARK   74  A    between atoms: _199  and  _200
REMARK   75  A    between atoms: _199  and  _202
REMARK   76  A    between atoms: _202  and  _203
REMARK   77  A    between atoms: _208  and  _210
REMARK   78  A    between atoms: _210  and  _211
REMARK   79  A    between atoms: _210  and  _213
REMARK   80  A    between atoms: _213  and  _214
REMARK   81  A    between atoms: _217  and  _219
REMARK   82  A    between atoms: _219  and  _220
REMARK   83  A    between atoms: _219  and  _222
REMARK   84  A    between atoms: _222  and  _223
REMARK   85  A    between atoms: _229  and  _231
REMARK   86  A    between atoms: _231  and  _232
REMARK   87  A    between atoms: _234  and  _236
REMARK   88  A    between atoms: _236  and  _237
REMARK   89  A    between atoms: _236  and  _239
REMARK   90  A    between atoms: _239  and  _240
REMARK   91  A    between atoms: _240  and  _241
REMARK   92  A    between atoms: _243  and  _245
REMARK   93  A    between atoms: _245  and  _246
REMARK   94  A    between atoms: _245  and  _248
REMARK   95  A    between atoms: _248  and  _249
REMARK   96  A    between atoms: _252  and  _254
REMARK   97  A    between atoms: _254  and  _255
REMARK   98  A    between atoms: _254  and  _257
REMARK   99  A    between atoms: _257  and  _258
REMARK  100  A    between atoms: _258  and  _259
REMARK  101  A    between atoms: _259  and  _260
REMARK  102  A    between atoms: _260  and  _261
REMARK  103  A    between atoms: _265  and  _267
REMARK  104  A    between atoms: _267  and  _268
REMARK  105  A    between atoms: _267  and  _270
REMARK  106  A    between atoms: _275  and  _276
REMARK  107  A    between atoms: _275  and  _278
REMARK  108  A    between atoms: _278  and  _279
REMARK  109  A    between atoms: _281  and  _283
REMARK  110  A    between atoms: _283  and  _284
REMARK  111  A    between atoms: _283  and  _286
REMARK  112  A    between atoms: _289  and  _291
REMARK  113  A    between atoms: _291  and  _292
REMARK  114  A    between atoms: _294  and  _296
REMARK  115  A    between atoms: _296  and  _297
REMARK  116  A    between atoms: _300  and  _302
REMARK  117  A    between atoms: _302  and  _303
REMARK  118  A    between atoms: _302  and  _305
REMARK  119  A    between atoms: _305  and  _306
REMARK  120  A    between atoms: _309  and  _311
REMARK  121  A    between atoms: _311  and  _312
REMARK  122  A    between atoms: _311  and  _314
REMARK  123  A    between atoms: _317  and  _319
REMARK  124  A    between atoms: _319  and  _320
REMARK  125  A    between atoms: _319  and  _322
REMARK  126  A    between atoms: _322  and  _323
REMARK  127  A    between atoms: _326  and  _328
REMARK  128  A    between atoms: _328  and  _329
REMARK  129  A    between atoms: _332  and  _334
REMARK  130  A    between atoms: _334  and  _335
REMARK  131  A    between atoms: _334  and  _337
REMARK  132  A    between atoms: _337  and  _338
REMARK  133  A    between atoms: _338  and  _339
REMARK  134  A    between atoms: _342  and  _344
REMARK  135  A    between atoms: _344  and  _345
REMARK  136  A    between atoms: _344  and  _347
REMARK  137  A    between atoms: _347  and  _348
REMARK  138  A    between atoms: _348  and  _349
REMARK  139  A    between atoms: _352  and  _354
REMARK  140  A    between atoms: _354  and  _355
REMARK  141  A    between atoms: _354  and  _357
REMARK  142  A    between atoms: _357  and  _358
REMARK  143  A    between atoms: _361  and  _363
REMARK  144  A    between atoms: _363  and  _364
REMARK  145  A    between atoms: _363  and  _366
REMARK  146  A    between atoms: _366  and  _367
REMARK  147  A    between atoms: _367  and  _368
REMARK  148  A    between atoms: _368  and  _369
REMARK  149  A    between atoms: _378  and  _380
REMARK  150  A    between atoms: _380  and  _381
REMARK  151  A    between atoms: _380  and  _383
REMARK  152  A    between atoms: _383  and  _384
REMARK  153  A    between atoms: _387  and  _389
REMARK  154  A    between atoms: _389  and  _390
REMARK  155  A    between atoms: _389  and  _392
REMARK  156  A    between atoms: _392  and  _393
REMARK  157  A    between atoms: _396  and  _398
REMARK  158  A    between atoms: _398  and  _399
REMARK  159  A    between atoms: _403  and  _404
REMARK  160  A    between atoms: _409  and  _411
REMARK  161  A    between atoms: _411  and  _412
REMARK  162  A    between atoms: _411  and  _414
REMARK  163  A    between atoms: _414  and  _415
REMARK  164  A    between atoms: _420  and  _422
REMARK  165  A    between atoms: _422  and  _423
REMARK  166  A    between atoms: _422  and  _425
REMARK  167  A    between atoms: _425  and  _426
REMARK  168  A    between atoms: _433  and  _434
REMARK  169  A    between atoms: _439  and  _441
REMARK  170  A    between atoms: _441  and  _442
REMARK  171  A    between atoms: _441  and  _444
REMARK  172  A    between atoms: _444  and  _445
REMARK  173  A    between atoms: _448  and  _450
REMARK  174  A    between atoms: _450  and  _451
REMARK  175  A    between atoms: _450  and  _453
REMARK  176  A    between atoms: _453  and  _454
REMARK  177  A    between atoms: _457  and  _459
REMARK  178  A    between atoms: _459  and  _460
REMARK  179  A    between atoms: _459  and  _462
REMARK  180  A    between atoms: _462  and  _463
REMARK  181  A    between atoms: _463  and  _464
REMARK  182  A    between atoms: _468  and  _469
REMARK  183  A    between atoms: _468  and  _471
REMARK  184  A    between atoms: _471  and  _472
REMARK  185  A    between atoms: _472  and  _473
REMARK  186  A    between atoms: _478  and  _480
REMARK  187  A    between atoms: _480  and  _481
REMARK  188  A    between atoms: _480  and  _483
REMARK  189  A    between atoms: _483  and  _484
REMARK  190  A    between atoms: _484  and  _485
REMARK  191  A    between atoms: _488  and  _490
REMARK  192  A    between atoms: _490  and  _491
REMARK  193  A    between atoms: _490  and  _493
REMARK  194  A    between atoms: _493  and  _494
REMARK  195  A    between atoms: _497  and  _499
REMARK  196  A    between atoms: _499  and  _500
REMARK  197  A    between atoms: _499  and  _502
REMARK  198  A    between atoms: _502  and  _503
REMARK  199  A    between atoms: _506  and  _508
REMARK  200  A    between atoms: _508  and  _509
REMARK  201  A    between atoms: _508  and  _511
REMARK  202  A    between atoms: _511  and  _512
REMARK  203  A    between atoms: _520  and  _521
REMARK  204  A    between atoms: _520  and  _523
REMARK  205  A    between atoms: _523  and  _524
REMARK  206  A    between atoms: _524  and  _525
REMARK  207  A    between atoms: _528  and  _530
REMARK  208  A    between atoms: _530  and  _531
REMARK  209  A    between atoms: _530  and  _533
REMARK  210  A    between atoms: _533  and  _534
REMARK  211  A    between atoms: _539  and  _541
REMARK  212  A    between atoms: _541  and  _542
REMARK  213  A    between atoms: _541  and  _544
REMARK  214  A    between atoms: _544  and  _545
REMARK  215  A    between atoms: _545  and  _546
REMARK  216  A    between atoms: _546  and  _547
REMARK  217  A    between atoms: _556  and  _558
REMARK  218  A    between atoms: _558  and  _559
REMARK  219  A    between atoms: _558  and  _561
REMARK  220  A    between atoms: _561  and  _562
REMARK  221  A    between atoms: _565  and  _567
REMARK  222  A    between atoms: _567  and  _568
REMARK  223  A    between atoms: _567  and  _570
REMARK  224  A    between atoms: _570  and  _571
REMARK  225  A    between atoms: _574  and  _576
REMARK  226  A    between atoms: _576  and  _577
REMARK  227  A    between atoms: _576  and  _579
REMARK  228  A    between atoms: _579  and  _580
REMARK  229  A    between atoms: _580  and  _581
REMARK  230  A    between atoms: _581  and  _582
REMARK  231  A    between atoms: _591  and  _593
REMARK  232  A    between atoms: _593  and  _594
REMARK  233  A    between atoms: _593  and  _596
REMARK  234  A    between atoms: _596  and  _597
REMARK  235  A    between atoms: _597  and  _598
REMARK  236  A    between atoms: _598  and  _599
REMARK  237  A    between atoms: _608  and  _610
REMARK  238  A    between atoms: _610  and  _611
REMARK  239  A    between atoms: _610  and  _613
REMARK  240  A    between atoms: _613  and  _614
REMARK  241  A    between atoms: _614  and  _615
REMARK  242  A    between atoms: _615  and  _616
REMARK  243  A    between atoms: _625  and  _627
REMARK  244  A    between atoms: _627  and  _628
REMARK  245  A    between atoms: _627  and  _630
REMARK  246  A    between atoms: _630  and  _631
REMARK  247  A    between atoms: _634  and  _636
REMARK  248  A    between atoms: _636  and  _637
REMARK  249  A    between atoms: _636  and  _639
REMARK  250  A    between atoms: _639  and  _640
REMARK  251  A    between atoms: _640  and  _641
REMARK                            x       y       z     vdW  Elec       q    Type
REMARK                         _______ _______ _______ _____ _____    ______ ____
ROOT
ATOM      1  C   ASN A   2     -45.422  -1.353   8.383  0.00  0.00    +0.256 C 
ATOM      2  O   ASN A   2     -45.505  -0.647   9.383  0.00  0.00    -0.269 OA
ATOM      3  N   ALA A   3     -46.454  -2.020   7.880  0.00  0.00    -0.294 N 
ATOM      4  H   ALA A   3     -46.336  -2.544   6.989  0.00  0.00    +0.150 HD
ENDROOT
BRANCH   1   8
ATOM      5  C   LYS A   1     -43.919  -3.726   6.682  0.00  0.00    +0.242 C 
ATOM      6  O   LYS A   1     -44.102  -4.289   7.767  0.00  0.00    -0.273 OA
ATOM      7  N   ASN A   2     -43.901  -2.402   6.525  0.00  0.00    -0.282 N 
ATOM      8  CA  ASN A   2     -44.100  -1.464   7.624  0.00  0.00    +0.091 C 
ATOM      9  H   ASN A   2     -43.737  -2.019   5.572  0.00  0.00    +0.155 HD
BRANCH   8  10
ATOM     10  CB  ASN A   2     -43.283  -0.184   7.523  0.00  0.00    +0.131 C 
BRANCH  10  11
ATOM     11  CG  ASN A   2     -41.803  -0.457   7.351  0.00  0.00    +0.225 C 
ATOM     12  OD1 ASN A   2     -41.291  -1.496   7.782  0.00  0.00    -0.275 OA
ATOM     13  ND2 ASN A   2     -41.100   0.483   6.741  0.00  0.00    -0.328 N 
ATOM     14 HD21 ASN A   2     -40.075   0.363   6.609  0.00  0.00    +0.145 HD
ATOM     15 HD22 ASN A   2     -41.572   1.342   6.394  0.00  0.00    +0.145 HD
ENDBRANCH  10  11
ENDBRANCH   8  10
BRANCH   5  16
ATOM     16  CA  LYS A   1     -43.682  -4.520   5.397  0.00  0.00    +0.145 C 
BRANCH  16  17
ATOM     17  N   LYS A   1     -44.526  -3.959   4.345  0.00  0.00    -0.238 NA
ATOM     18  H   LYS A   1     -44.089  -3.647   3.454  0.00  0.00    +0.142 HD
ENDBRANCH  16  17
BRANCH  16  19
ATOM     19  CB  LYS A   1     -42.208  -4.547   5.012  0.00  0.00    +0.026 C 
BRANCH  19  20
ATOM     20  CG  LYS A   1     -41.290  -4.851   6.170  0.00  0.00    -0.000 C 
BRANCH  20  21
ATOM     21  CD  LYS A   1     -39.813  -4.738   5.758  0.00  0.00    -0.024 C 
BRANCH  21  22
ATOM     22  CE  LYS A   1     -39.213  -3.383   6.095  0.00  0.00    -0.086 C 
BRANCH  22  23
ATOM     23  NZ  LYS A   1     -38.995  -3.212   7.576  0.00  0.00    +0.380 N 
ATOM     24  HZ1 LYS A   1     -39.906  -3.296   8.071  0.00  0.00    -0.089 HD
ATOM     25  HZ2 LYS A   1     -38.345  -3.949   7.917  0.00  0.00    -0.089 HD
ATOM     26  HZ3 LYS A   1     -38.585  -2.274   7.759  0.00  0.00    -0.089 HD
ENDBRANCH  22  23
ENDBRANCH  21  22
ENDBRANCH  20  21
ENDBRANCH  19  20
ENDBRANCH  16  19
ENDBRANCH   5  16
ENDBRANCH   1   8
BRANCH   3  27
ATOM     27  CA  ALA A   3     -47.748  -2.034   8.549  0.00  0.00    +0.149 C 
ATOM     28  CB  ALA A   3     -48.871  -1.729   7.566  0.00  0.00    +0.031 C 
BRANCH  27  29
ATOM     29  C   ALA A   3     -47.906  -3.438   9.139  0.00  0.00    +0.241 C 
ATOM     30  O   ALA A   3     -48.399  -3.610  10.257  0.00  0.00    -0.273 OA
ATOM     31  N   ALA A   4     -47.467  -4.436   8.381  0.00  0.00    -0.297 N 
ATOM     32  H   ALA A   4     -47.080  -4.230   7.438  0.00  0.00    +0.150 HD
BRANCH  31  33
ATOM     33  CA  ALA A   4     -47.519  -5.815   8.848  0.00  0.00    +0.149 C 
ATOM     34  CB  ALA A   4     -46.889  -6.737   7.823  0.00  0.00    +0.031 C 
BRANCH  33  35
ATOM     35  C   ALA A   4     -46.793  -5.962  10.191  0.00  0.00    +0.241 C 
ATOM     36  O   ALA A   4     -47.347  -6.502  11.132  0.00  0.00    -0.273 OA
ATOM     37  N   LEU A   5     -45.555  -5.484  10.272  0.00  0.00    -0.297 N 
ATOM     38  H   LEU A   5     -45.139  -5.027   9.436  0.00  0.00    +0.150 HD
BRANCH  37  39
ATOM     39  CA  LEU A   5     -44.751  -5.578  11.503  0.00  0.00    +0.149 C 
BRANCH  39  40
ATOM     40  C   LEU A   5     -45.374  -5.047  12.809  0.00  0.00    +0.244 C 
ATOM     41  O   LEU A   5     -45.480  -5.770  13.817  0.00  0.00    -0.273 OA
ATOM     42  N   PRO A   6     -45.739  -3.753  12.825  0.00  0.00    -0.273 N 
ATOM     43  CA  PRO A   6     -46.332  -3.206  14.039  0.00  0.00    +0.140 C 
ATOM     44  CB  PRO A   6     -46.446  -1.713  13.732  0.00  0.00    +0.030 C 
ATOM     45  CG  PRO A   6     -46.511  -1.657  12.248  0.00  0.00    +0.024 C 
ATOM     46  CD  PRO A   6     -45.489  -2.687  11.841  0.00  0.00    +0.094 C 
BRANCH  43  47
ATOM     47  C   PRO A   6     -47.666  -3.860  14.368  0.00  0.00    +0.227 C 
ATOM     48  O   PRO A   6     -48.004  -4.020  15.548  0.00  0.00    -0.286 OA
ENDBRANCH  43  47
ENDBRANCH  39  40
BRANCH  39  49
ATOM     49  CB  LEU A   5     -43.302  -5.122  11.330  0.00  0.00    +0.029 C 
BRANCH  49  50
ATOM     50  CG  LEU A   5     -42.360  -5.815  10.344  0.00  0.00    +0.002 C 
ATOM     51  CD2 LEU A   5     -42.128  -7.257  10.775  0.00  0.00    +0.000 C 
ATOM     52  CD1 LEU A   5     -41.017  -5.027  10.284  0.00  0.00    +0.000 C 
ENDBRANCH  49  50
ENDBRANCH  39  49
ENDBRANCH  37  39
ENDBRANCH  33  35
ENDBRANCH  31  33
ENDBRANCH  27  29
ENDBRANCH   3  27
TORSDOF 19
REMARK  Name = ../refined-set-2016/3v4t/3v4t_pocket.pdb
REMARK  251 active torsions:
REMARK  status: ('A' for Active; 'I' for Inactive)
REMARK    1  A    between atoms: _1  and  _3
REMARK    2  A    between atoms: _3  and  _4
REMARK    3  A    between atoms: _3  and  _6
REMARK    4  A    between atoms: _6  and  _7
REMARK    5  A    between atoms: _7  and  _8
REMARK    6  A    between atoms: _8  and  _9
REMARK    7  A    between atoms: _9  and  _10
REMARK    8  A    between atoms: _16  and  _17
REMARK    9  A    between atoms: _16  and  _19
REMARK   10  A    between atoms: _19  and  _20
REMARK   11  A    between atoms: _25  and  _27
REMARK   12  A    between atoms: _27  and  _28
REMARK   13  A    between atoms: _31  and  _33
REMARK   14  A    between atoms: _33  and  _34
REMARK   15  A    between atoms: _37  and  _39
REMARK   16  A    between atoms: _39  and  _40
REMARK   17  A    between atoms: _39  and  _42
REMARK   18  A    between atoms: _42  and  _43
REMARK   19  A    between atoms: _47  and  _48
REMARK   20  A    between atoms: _53  and  _55
REMARK   21  A    between atoms: _55  and  _56
REMARK   22  A    between atoms: _55  and  _58
REMARK   23  A    between atoms: _58  and  _59
REMARK   24  A    between atoms: _62  and  _64
REMARK   25  A    between atoms: _64  and  _65
REMARK   26  A    between atoms: _64  and  _67
REMARK   27  A    between atoms: _67  and  _68
REMARK   28  A    between atoms: _68  and  _69
REMARK   29  A    between atoms: _73  and  _74
REMARK   30  A    between atoms: _73  and  _76
REMARK   31  A    between atoms: _76  and  _77
REMARK   32  A    between atoms: _77  and  _78
REMARK   33  A    between atoms: _78  and  _79
REMARK   34  A    between atoms: _88  and  _90
REMARK   35  A    between atoms: _90  and  _91
REMARK   36  A    between atoms: _94  and  _96
REMARK   37  A    between atoms: _96  and  _97
REMARK   38  A    between atoms: _96  and  _99
REMARK   39  A    between atoms: _99  and  _100
REMARK   40  A    between atoms: _102  and  _104
REMARK   41  A    between atoms: _104  and  _105
REMARK   42  A    between atoms: _104  and  _107
REMARK   43  A    between atoms: _107  and  _108
REMARK   44  A    between atoms: _113  and  _114
REMARK   45  A    between atoms: _113  and  _116
REMARK   46  A    between atoms: _116  and  _117
REMARK   47  A    between atoms: _127  and  _129
REMARK   48  A    between atoms: _129  and  _130
REMARK   49  A    between atoms: _129  and  _132
REMARK   50  A    between atoms: _132  and  _133
REMARK   51  A    between atoms: _136  and  _138
REMARK   52  A    between atoms: _138  and  _139
REMARK   53  A    between atoms: _141  and  _143
REMARK   54  A    between atoms: _143  and  _144
REMARK   55  A    between atoms: _147  and  _149
REMARK   56  A    between atoms: _149  and  _150
REMARK   57  A    between atoms: _149  and  _152
REMARK   58  A    between atoms: _152  and  _153
REMARK   59  A    between atoms: _153  and  _154
REMARK   60  A    between atoms: _154  and  _155
REMARK   61  A    between atoms: _165  and  _166
REMARK   62  A    between atoms: _171  and  _173
REMARK   63  A    between atoms: _173  and  _174
REMARK   64  A    between atoms: _173  and  _176
REMARK   65  A    between atoms: _179  and  _181
REMARK   66  A    between atoms: _181  and  _182
REMARK   67  A    between atoms: _181  and  _184
REMARK   68  A    between atoms: _184  and  _185
REMARK   69  A    between atoms: _188  and  _190
REMARK   70  A    between atoms: _190  and  _191
REMARK   71  A    between atoms: _190  and  _193
REMARK   72  A    between atoms: _193  and  _194
REMARK   73  A    between atoms: _197  and  _199
REMARK   74  A    between atoms: _199  and  _200
REMARK   75  A    between atoms: _199  and  _202
REMARK   76  A    between atoms: _202  and  _203
REMARK   77  A    between atoms: _208  and  _210
REMARK   78  A    between atoms: _210  and  _211
REMARK   79  A    between atoms: _210  and  _213
REMARK   80  A    between atoms: _213  and  _214
REMARK   81  A    between atoms: _217  and  _219
REMARK   82  A    between atoms: _219  and  _220
REMARK   83  A    between atoms: _219  and  _222
REMARK   84  A    between atoms: _222  and  _223
REMARK   85  A    between atoms: _229  and  _231
REMARK   86  A    between atoms: _231  and  _232
REMARK   87  A    between atoms: _234  and  _236
REMARK   88  A    between atoms: _236  and  _237
REMARK   89  A    between atoms: _236  and  _239
REMARK   90  A    between atoms: _239  and  _240
REMARK   91  A    between atoms: _240  and  _241
REMARK   92  A    between atoms: _243  and  _245
REMARK   93  A    between atoms: _245  and  _246
REMARK   94  A    between atoms: _245  and  _248
REMARK   95  A    between atoms: _248  and  _249
REMARK   96  A    between atoms: _252  and  _254
REMARK   97  A    between atoms: _254  and  _255
REMARK   98  A    between atoms: _254  and  _257
REMARK   99  A    between atoms: _257  and  _258
REMARK  100  A    between atoms: _258  and  _259
REMARK  101  A    between atoms: _259  and  _260
REMARK  102  A    between atoms: _260  and  _261
REMARK  103  A    between atoms: _265  and  _267
REMARK  104  A    between atoms: _267  and  _268
REMARK  105  A    between atoms: _267  and  _270
REMARK  106  A    between atoms: _275  and  _276
REMARK  107  A    between atoms: _275  and  _278
REMARK  108  A    between atoms: _278  and  _279
REMARK  109  A    between atoms: _281  and  _283
REMARK  110  A    between atoms: _283  and  _284
REMARK  111  A    between atoms: _283  and  _286
REMARK  112  A    between atoms: _289  and  _291
REMARK  113  A    between atoms: _291  and  _292
REMARK  114  A    between atoms: _294  and  _296
REMARK  115  A    between atoms: _296  and  _297
REMARK  116  A    between atoms: _300  and  _302
REMARK  117  A    between atoms: _302  and  _303
REMARK  118  A    between atoms: _302  and  _305
REMARK  119  A    between atoms: _305  and  _306
REMARK  120  A    between atoms: _309  and  _311
REMARK  121  A    between atoms: _311  and  _312
REMARK  122  A    between atoms: _311  and  _314
REMARK  123  A    between atoms: _317  and  _319
REMARK  124  A    between atoms: _319  and  _320
REMARK  125  A    between atoms: _319  and  _322
REMARK  126  A    between atoms: _322  and  _323
REMARK  127  A    between atoms: _326  and  _328
REMARK  128  A    between atoms: _328  and  _329
REMARK  129  A    between atoms: _332  and  _334
REMARK  130  A    between atoms: _334  and  _335
REMARK  131  A    between atoms: _334  and  _337
REMARK  132  A    between atoms: _337  and  _338
REMARK  133  A    between atoms: _338  and  _339
REMARK  134  A    between atoms: _342  and  _344
REMARK  135  A    between atoms: _344  and  _345
REMARK  136  A    between atoms: _344  and  _347
REMARK  137  A    between atoms: _347  and  _348
REMARK  138  A    between atoms: _348  and  _349
REMARK  139  A    between atoms: _352  and  _354
REMARK  140  A    between atoms: _354  and  _355
REMARK  141  A    between atoms: _354  and  _357
REMARK  142  A    between atoms: _357  and  _358
REMARK  143  A    between atoms: _361  and  _363
REMARK  144  A    between atoms: _363  and  _364
REMARK  145  A    between atoms: _363  and  _366
REMARK  146  A    between atoms: _366  and  _367
REMARK  147  A    between atoms: _367  and  _368
REMARK  148  A    between atoms: _368  and  _369
REMARK  149  A    between atoms: _378  and  _380
REMARK  150  A    between atoms: _380  and  _381
REMARK  151  A    between atoms: _380  and  _383
REMARK  152  A    between atoms: _383  and  _384
REMARK  153  A    between atoms: _387  and  _389
REMARK  154  A    between atoms: _389  and  _390
REMARK  155  A    between atoms: _389  and  _392
REMARK  156  A    between atoms: _392  and  _393
REMARK  157  A    between atoms: _396  and  _398
REMARK  158  A    between atoms: _398  and  _399
REMARK  159  A    between atoms: _403  and  _404
REMARK  160  A    between atoms: _409  and  _411
REMARK  161  A    between atoms: _411  and  _412
REMARK  162  A    between atoms: _411  and  _414
REMARK  163  A    between atoms: _414  and  _415
REMARK  164  A    between atoms: _420  and  _422
REMARK  165  A    between atoms: _422  and  _423
REMARK  166  A    between atoms: _422  and  _425
REMARK  167  A    between atoms: _425  and  _426
REMARK  168  A    between atoms: _433  and  _434
REMARK  169  A    between atoms: _439  and  _441
REMARK  170  A    between atoms: _441  and  _442
REMARK  171  A    between atoms: _441  and  _444
REMARK  172  A    between atoms: _444  and  _445
REMARK  173  A    between atoms: _448  and  _450
REMARK  174  A    between atoms: _450  and  _451
REMARK  175  A    between atoms: _450  and  _453
REMARK  176  A    between atoms: _453  and  _454
REMARK  177  A    between atoms: _457  and  _459
REMARK  178  A    between atoms: _459  and  _460
REMARK  179  A    between atoms: _459  and  _462
REMARK  180  A    between atoms: _462  and  _463
REMARK  181  A    between atoms: _463  and  _464
REMARK  182  A    between atoms: _468  and  _469
REMARK  183  A    between atoms: _468  and  _471
REMARK  184  A    between atoms: _471  and  _472
REMARK  185  A    between atoms: _472  and  _473
REMARK  186  A    between atoms: _478  and  _480
REMARK  187  A    between atoms: _480  and  _481
REMARK  188  A    between atoms: _480  and  _483
REMARK  189  A    between atoms: _483  and  _484
REMARK  190  A    between atoms: _484  and  _485
REMARK  191  A    between atoms: _488  and  _490
REMARK  192  A    between atoms: _490  and  _491
REMARK  193  A    between atoms: _490  and  _493
REMARK  194  A    between atoms: _493  and  _494
REMARK  195  A    between atoms: _497  and  _499
REMARK  196  A    between atoms: _499  and  _500
REMARK  197  A    between atoms: _499  and  _502
REMARK  198  A    between atoms: _502  and  _503
REMARK  199  A    between atoms: _506  and  _508
REMARK  200  A    between atoms: _508  and  _509
REMARK  201  A    between atoms: _508  and  _511
REMARK  202  A    between atoms: _511  and  _512
REMARK  203  A    between atoms: _520  and  _521
REMARK  204  A    between atoms: _520  and  _523
REMARK  205  A    between atoms: _523  and  _524
REMARK  206  A    between atoms: _524  and  _525
REMARK  207  A    between atoms: _528  and  _530
REMARK  208  A    between atoms: _530  and  _531
REMARK  209  A    between atoms: _530  and  _533
REMARK  210  A    between atoms: _533  and  _534
REMARK  211  A    between atoms: _539  and  _541
REMARK  212  A    between atoms: _541  and  _542
REMARK  213  A    between atoms: _541  and  _544
REMARK  214  A    between atoms: _544  and  _545
REMARK  215  A    between atoms: _545  and  _546
REMARK  216  A    between atoms: _546  and  _547
REMARK  217  A    between atoms: _556  and  _558
REMARK  218  A    between atoms: _558  and  _559
REMARK  219  A    between atoms: _558  and  _561
REMARK  220  A    between atoms: _561  and  _562
REMARK  221  A    between atoms: _565  and  _567
REMARK  222  A    between atoms: _567  and  _568
REMARK  223  A    between atoms: _567  and  _570
REMARK  224  A    between atoms: _570  and  _571
REMARK  225  A    between atoms: _574  and  _576
REMARK  226  A    between atoms: _576  and  _577
REMARK  227  A    between atoms: _576  and  _579
REMARK  228  A    between atoms: _579  and  _580
REMARK  229  A    between atoms: _580  and  _581
REMARK  230  A    between atoms: _581  and  _582
REMARK  231  A    between atoms: _591  and  _593
REMARK  232  A    between atoms: _593  and  _594
REMARK  233  A    between atoms: _593  and  _596
REMARK  234  A    between atoms: _596  and  _597
REMARK  235  A    between atoms: _597  and  _598
REMARK  236  A    between atoms: _598  and  _599
REMARK  237  A    between atoms: _608  and  _610
REMARK  238  A    between atoms: _610  and  _611
REMARK  239  A    between atoms: _610  and  _613
REMARK  240  A    between atoms: _613  and  _614
REMARK  241  A    between atoms: _614  and  _615
REMARK  242  A    between atoms: _615  and  _616
REMARK  243  A    between atoms: _625  and  _627
REMARK  244  A    between atoms: _627  and  _628
REMARK  245  A    between atoms: _627  and  _630
REMARK  246  A    between atoms: _630  and  _631
REMARK  247  A    between atoms: _634  and  _636
REMARK  248  A    between atoms: _636  and  _637
REMARK  249  A    between atoms: _636  and  _639
REMARK  250  A    between atoms: _639  and  _640
REMARK  251  A    between atoms: _640  and  _641
REMARK                            x       y       z     vdW  Elec       q    Type
REMARK                         _______ _______ _______ _____ _____    ______ ____
ROOT
ATOM      1  CA  ASP A   1     -38.723  -9.860   8.726  0.00  0.00    +0.144 C 
ENDROOT
BRANCH   1   2
ATOM      2  N   ASP A   1     -38.281 -10.585   7.548  0.00  0.00    -0.239 NA
ATOM      3  H   ASP A   1     -38.249 -10.101   6.628  0.00  0.00    +0.142 HD
ENDBRANCH   1   2
BRANCH   1   4
ATOM      4  C   ASP A   1     -40.003 -10.438   9.320  0.00  0.00    +0.225 C 
ATOM      5  O   ASP A   1     -40.174 -10.495  10.540  0.00  0.00    -0.287 OA
ENDBRANCH   1   4
BRANCH   1   6
ATOM      6  CB  ASP A   1     -38.669  -8.326   8.611  0.00  0.00    +0.139 C 
BRANCH   6   7
ATOM      7  CG  ASP A   1     -37.256  -7.772   8.749  0.00  0.00    +0.367 C 
ATOM      8  OD2 ASP A   1     -36.327  -8.554   9.020  0.00  0.00    -0.246 OA
ATOM      9  OD1 ASP A   1     -37.068  -6.547   8.596  0.00  0.00    -0.246 OA
ENDBRANCH   6   7
ENDBRANCH   1   6
TORSDOF 4
REMARK  Name = ../refined-set-2016/3v4t/3v4t_pocket.pdb
REMARK  251 active torsions:
REMARK  status: ('A' for Active; 'I' for Inactive)
REMARK    1  A    between atoms: _1  and  _3
REMARK    2  A    between atoms: _3  and  _4
REMARK    3  A    between atoms: _3  and  _6
REMARK    4  A    between atoms: _6  and  _7
REMARK    5  A    between atoms: _7  and  _8
REMARK    6  A    between atoms: _8  and  _9
REMARK    7  A    between atoms: _9  and  _10
REMARK    8  A    between atoms: _16  and  _17
REMARK    9  A    between atoms: _16  and  _19
REMARK   10  A    between atoms: _19  and  _20
REMARK   11  A    between atoms: _25  and  _27
REMARK   12  A    between atoms: _27  and  _28
REMARK   13  A    between atoms: _31  and  _33
REMARK   14  A    between atoms: _33  and  _34
REMARK   15  A    between atoms: _37  and  _39
REMARK   16  A    between atoms: _39  and  _40
REMARK   17  A    between atoms: _39  and  _42
REMARK   18  A    between atoms: _42  and  _43
REMARK   19  A    between atoms: _47  and  _48
REMARK   20  A    between atoms: _53  and  _55
REMARK   21  A    between atoms: _55  and  _56
REMARK   22  A    between atoms: _55  and  _58
REMARK   23  A    between atoms: _58  and  _59
REMARK   24  A    between atoms: _62  and  _64
REMARK   25  A    between atoms: _64  and  _65
REMARK   26  A    between atoms: _64  and  _67
REMARK   27  A    between atoms: _67  and  _68
REMARK   28  A    between atoms: _68  and  _69
REMARK   29  A    between atoms: _73  and  _74
REMARK   30  A    between atoms: _73  and  _76
REMARK   31  A    between atoms: _76  and  _77
REMARK   32  A    between atoms: _77  and  _78
REMARK   33  A    between atoms: _78  and  _79
REMARK   34  A    between atoms: _88  and  _90
REMARK   35  A    between atoms: _90  and  _91
REMARK   36  A    between atoms: _94  and  _96
REMARK   37  A    between atoms: _96  and  _97
REMARK   38  A    between atoms: _96  and  _99
REMARK   39  A    between atoms: _99  and  _100
REMARK   40  A    between atoms: _102  and  _104
REMARK   41  A    between atoms: _104  and  _105
REMARK   42  A    between atoms: _104  and  _107
REMARK   43  A    between atoms: _107  and  _108
REMARK   44  A    between atoms: _113  and  _114
REMARK   45  A    between atoms: _113  and  _116
REMARK   46  A    between atoms: _116  and  _117
REMARK   47  A    between atoms: _127  and  _129
REMARK   48  A    between atoms: _129  and  _130
REMARK   49  A    between atoms: _129  and  _132
REMARK   50  A    between atoms: _132  and  _133
REMARK   51  A    between atoms: _136  and  _138
REMARK   52  A    between atoms: _138  and  _139
REMARK   53  A    between atoms: _141  and  _143
REMARK   54  A    between atoms: _143  and  _144
REMARK   55  A    between atoms: _147  and  _149
REMARK   56  A    between atoms: _149  and  _150
REMARK   57  A    between atoms: _149  and  _152
REMARK   58  A    between atoms: _152  and  _153
REMARK   59  A    between atoms: _153  and  _154
REMARK   60  A    between atoms: _154  and  _155
REMARK   61  A    between atoms: _165  and  _166
REMARK   62  A    between atoms: _171  and  _173
REMARK   63  A    between atoms: _173  and  _174
REMARK   64  A    between atoms: _173  and  _176
REMARK   65  A    between atoms: _179  and  _181
REMARK   66  A    between atoms: _181  and  _182
REMARK   67  A    between atoms: _181  and  _184
REMARK   68  A    between atoms: _184  and  _185
REMARK   69  A    between atoms: _188  and  _190
REMARK   70  A    between atoms: _190  and  _191
REMARK   71  A    between atoms: _190  and  _193
REMARK   72  A    between atoms: _193  and  _194
REMARK   73  A    between atoms: _197  and  _199
REMARK   74  A    between atoms: _199  and  _200
REMARK   75  A    between atoms: _199  and  _202
REMARK   76  A    between atoms: _202  and  _203
REMARK   77  A    between atoms: _208  and  _210
REMARK   78  A    between atoms: _210  and  _211
REMARK   79  A    between atoms: _210  and  _213
REMARK   80  A    between atoms: _213  and  _214
REMARK   81  A    between atoms: _217  and  _219
REMARK   82  A    between atoms: _219  and  _220
REMARK   83  A    between atoms: _219  and  _222
REMARK   84  A    between atoms: _222  and  _223
REMARK   85  A    between atoms: _229  and  _231
REMARK   86  A    between atoms: _231  and  _232
REMARK   87  A    between atoms: _234  and  _236
REMARK   88  A    between atoms: _236  and  _237
REMARK   89  A    between atoms: _236  and  _239
REMARK   90  A    between atoms: _239  and  _240
REMARK   91  A    between atoms: _240  and  _241
REMARK   92  A    between atoms: _243  and  _245
REMARK   93  A    between atoms: _245  and  _246
REMARK   94  A    between atoms: _245  and  _248
REMARK   95  A    between atoms: _248  and  _249
REMARK   96  A    between atoms: _252  and  _254
REMARK   97  A    between atoms: _254  and  _255
REMARK   98  A    between atoms: _254  and  _257
REMARK   99  A    between atoms: _257  and  _258
REMARK  100  A    between atoms: _258  and  _259
REMARK  101  A    between atoms: _259  and  _260
REMARK  102  A    between atoms: _260  and  _261
REMARK  103  A    between atoms: _265  and  _267
REMARK  104  A    between atoms: _267  and  _268
REMARK  105  A    between atoms: _267  and  _270
REMARK  106  A    between atoms: _275  and  _276
REMARK  107  A    between atoms: _275  and  _278
REMARK  108  A    between atoms: _278  and  _279
REMARK  109  A    between atoms: _281  and  _283
REMARK  110  A    between atoms: _283  and  _284
REMARK  111  A    between atoms: _283  and  _286
REMARK  112  A    between atoms: _289  and  _291
REMARK  113  A    between atoms: _291  and  _292
REMARK  114  A    between atoms: _294  and  _296
REMARK  115  A    between atoms: _296  and  _297
REMARK  116  A    between atoms: _300  and  _302
REMARK  117  A    between atoms: _302  and  _303
REMARK  118  A    between atoms: _302  and  _305
REMARK  119  A    between atoms: _305  and  _306
REMARK  120  A    between atoms: _309  and  _311
REMARK  121  A    between atoms: _311  and  _312
REMARK  122  A    between atoms: _311  and  _314
REMARK  123  A    between atoms: _317  and  _319
REMARK  124  A    between atoms: _319  and  _320
REMARK  125  A    between atoms: _319  and  _322
REMARK  126  A    between atoms: _322  and  _323
REMARK  127  A    between atoms: _326  and  _328
REMARK  128  A    between atoms: _328  and  _329
REMARK  129  A    between atoms: _332  and  _334
REMARK  130  A    between atoms: _334  and  _335
REMARK  131  A    between atoms: _334  and  _337
REMARK  132  A    between atoms: _337  and  _338
REMARK  133  A    between atoms: _338  and  _339
REMARK  134  A    between atoms: _342  and  _344
REMARK  135  A    between atoms: _344  and  _345
REMARK  136  A    between atoms: _344  and  _347
REMARK  137  A    between atoms: _347  and  _348
REMARK  138  A    between atoms: _348  and  _349
REMARK  139  A    between atoms: _352  and  _354
REMARK  140  A    between atoms: _354  and  _355
REMARK  141  A    between atoms: _354  and  _357
REMARK  142  A    between atoms: _357  and  _358
REMARK  143  A    between atoms: _361  and  _363
REMARK  144  A    between atoms: _363  and  _364
REMARK  145  A    between atoms: _363  and  _366
REMARK  146  A    between atoms: _366  and  _367
REMARK  147  A    between atoms: _367  and  _368
REMARK  148  A    between atoms: _368  and  _369
REMARK  149  A    between atoms: _378  and  _380
REMARK  150  A    between atoms: _380  and  _381
REMARK  151  A    between atoms: _380  and  _383
REMARK  152  A    between atoms: _383  and  _384
REMARK  153  A    between atoms: _387  and  _389
REMARK  154  A    between atoms: _389  and  _390
REMARK  155  A    between atoms: _389  and  _392
REMARK  156  A    between atoms: _392  and  _393
REMARK  157  A    between atoms: _396  and  _398
REMARK  158  A    between atoms: _398  and  _399
REMARK  159  A    between atoms: _403  and  _404
REMARK  160  A    between atoms: _409  and  _411
REMARK  161  A    between atoms: _411  and  _412
REMARK  162  A    between atoms: _411  and  _414
REMARK  163  A    between atoms: _414  and  _415
REMARK  164  A    between atoms: _420  and  _422
REMARK  165  A    between atoms: _422  and  _423
REMARK  166  A    between atoms: _422  and  _425
REMARK  167  A    between atoms: _425  and  _426
REMARK  168  A    between atoms: _433  and  _434
REMARK  169  A    between atoms: _439  and  _441
REMARK  170  A    between atoms: _441  and  _442
REMARK  171  A    between atoms: _441  and  _444
REMARK  172  A    between atoms: _444  and  _445
REMARK  173  A    between atoms: _448  and  _450
REMARK  174  A    between atoms: _450  and  _451
REMARK  175  A    between atoms: _450  and  _453
REMARK  176  A    between atoms: _453  and  _454
REMARK  177  A    between atoms: _457  and  _459
REMARK  178  A    between atoms: _459  and  _460
REMARK  179  A    between atoms: _459  and  _462
REMARK  180  A    between atoms: _462  and  _463
REMARK  181  A    between atoms: _463  and  _464
REMARK  182  A    between atoms: _468  and  _469
REMARK  183  A    between atoms: _468  and  _471
REMARK  184  A    between atoms: _471  and  _472
REMARK  185  A    between atoms: _472  and  _473
REMARK  186  A    between atoms: _478  and  _480
REMARK  187  A    between atoms: _480  and  _481
REMARK  188  A    between atoms: _480  and  _483
REMARK  189  A    between atoms: _483  and  _484
REMARK  190  A    between atoms: _484  and  _485
REMARK  191  A    between atoms: _488  and  _490
REMARK  192  A    between atoms: _490  and  _491
REMARK  193  A    between atoms: _490  and  _493
REMARK  194  A    between atoms: _493  and  _494
REMARK  195  A    between atoms: _497  and  _499
REMARK  196  A    between atoms: _499  and  _500
REMARK  197  A    between atoms: _499  and  _502
REMARK  198  A    between atoms: _502  and  _503
REMARK  199  A    between atoms: _506  and  _508
REMARK  200  A    between atoms: _508  and  _509
REMARK  201  A    between atoms: _508  and  _511
REMARK  202  A    between atoms: _511  and  _512
REMARK  203  A    between atoms: _520  and  _521
REMARK  204  A    between atoms: _520  and  _523
REMARK  205  A    between atoms: _523  and  _524
REMARK  206  A    between atoms: _524  and  _525
REMARK  207  A    between atoms: _528  and  _530
REMARK  208  A    between atoms: _530  and  _531
REMARK  209  A    between atoms: _530  and  _533
REMARK  210  A    between atoms: _533  and  _534
REMARK  211  A    between atoms: _539  and  _541
REMARK  212  A    between atoms: _541  and  _542
REMARK  213  A    between atoms: _541  and  _544
REMARK  214  A    between atoms: _544  and  _545
REMARK  215  A    between atoms: _545  and  _546
REMARK  216  A    between atoms: _546  and  _547
REMARK  217  A    between atoms: _556  and  _558
REMARK  218  A    between atoms: _558  and  _559
REMARK  219  A    between atoms: _558  and  _561
REMARK  220  A    between atoms: _561  and  _562
REMARK  221  A    between atoms: _565  and  _567
REMARK  222  A    between atoms: _567  and  _568
REMARK  223  A    between atoms: _567  and  _570
REMARK  224  A    between atoms: _570  and  _571
REMARK  225  A    between atoms: _574  and  _576
REMARK  226  A    between atoms: _576  and  _577
REMARK  227  A    between atoms: _576  and  _579
REMARK  228  A    between atoms: _579  and  _580
REMARK  229  A    between atoms: _580  and  _581
REMARK  230  A    between atoms: _581  and  _582
REMARK  231  A    between atoms: _591  and  _593
REMARK  232  A    between atoms: _593  and  _594
REMARK  233  A    between atoms: _593  and  _596
REMARK  234  A    between atoms: _596  and  _597
REMARK  235  A    between atoms: _597  and  _598
REMARK  236  A    between atoms: _598  and  _599
REMARK  237  A    between atoms: _608  and  _610
REMARK  238  A    between atoms: _610  and  _611
REMARK  239  A    between atoms: _610  and  _613
REMARK  240  A    between atoms: _613  and  _614
REMARK  241  A    between atoms: _614  and  _615
REMARK  242  A    between atoms: _615  and  _616
REMARK  243  A    between atoms: _625  and  _627
REMARK  244  A    between atoms: _627  and  _628
REMARK  245  A    between atoms: _627  and  _630
REMARK  246  A    between atoms: _630  and  _631
REMARK  247  A    between atoms: _634  and  _636
REMARK  248  A    between atoms: _636  and  _637
REMARK  249  A    between atoms: _636  and  _639
REMARK  250  A    between atoms: _639  and  _640
REMARK  251  A    between atoms: _640  and  _641
REMARK                            x       y       z     vdW  Elec       q    Type
REMARK                         _______ _______ _______ _____ _____    ______ ____
ROOT
ATOM      1  C   ALA A   3     -39.060  -4.758  16.419  0.00  0.00    +0.241 C 
ATOM      2  O   ALA A   3     -40.111  -4.526  17.016  0.00  0.00    -0.273 OA
ATOM      3  N   SER A   4     -38.195  -5.695  16.812  0.00  0.00    -0.295 N 
ATOM      4  H   SER A   4     -37.351  -5.866  16.229  0.00  0.00    +0.150 HD
ENDROOT
BRANCH   1   5
ATOM      5  CA  ALA A   3     -38.668  -3.963  15.150  0.00  0.00    +0.149 C 
ATOM      6  CB  ALA A   3     -39.480  -4.422  13.950  0.00  0.00    +0.031 C 
BRANCH   5   9
ATOM      7  C   ARG A   2     -36.344  -3.868  15.832  0.00  0.00    +0.256 C 
ATOM      8  O   ARG A   2     -36.665  -3.434  16.942  0.00  0.00    -0.269 OA
ATOM      9  N   ALA A   3     -37.239  -4.133  14.884  0.00  0.00    -0.294 N 
ATOM     10  H   ALA A   3     -36.922  -4.462  13.950  0.00  0.00    +0.150 HD
BRANCH   7  14
ATOM     11  C   MET A   1     -34.930  -6.347  14.564  0.00  0.00    +0.242 C 
ATOM     12  O   MET A   1     -35.624  -6.774  15.422  0.00  0.00    -0.273 OA
ATOM     13  N   ARG A   2     -34.526  -5.103  14.502  0.00  0.00    -0.283 N 
ATOM     14  CA  ARG A   2     -34.872  -4.110  15.488  0.00  0.00    +0.081 C 
ATOM     15  H   ARG A   2     -33.926  -4.817  13.702  0.00  0.00    +0.155 HD
BRANCH  14  16
ATOM     16  CB  ARG A   2     -33.985  -2.882  15.453  0.00  0.00    +0.049 C 
BRANCH  16  17
ATOM     17  CG  ARG A   2     -33.819  -2.325  14.073  0.00  0.00    +0.049 C 
BRANCH  17  18
ATOM     18  CD  ARG A   2     -33.146  -1.001  14.127  0.00  0.00    +0.174 C 
BRANCH  18  19
ATOM     19  NE  ARG A   2     -33.931  -0.057  14.911  0.00  0.00    -0.265 N 
ATOM     20  CZ  ARG A   2     -33.411   0.732  15.844  0.00  0.00    +0.342 C 
ATOM     21  NH2 ARG A   2     -34.191   1.593  16.492  0.00  0.00    -0.292 N 
ATOM     22 HH21 ARG A   2     -33.787   2.212  17.223  0.00  0.00    +0.255 HD
ATOM     23 HH22 ARG A   2     -35.205   1.647  16.267  0.00  0.00    +0.255 HD
ATOM     24  NH1 ARG A   2     -32.103   0.671  16.107  0.00  0.00    -0.292 N 
ATOM     25 HH11 ARG A   2     -31.690   1.286  16.837  0.00  0.00    +0.255 HD
ATOM     26 HH12 ARG A   2     -31.497   0.008  15.582  0.00  0.00    +0.255 HD
ATOM     27  HE  ARG A   2     -34.953   0.002  14.730  0.00  0.00    +0.259 HD
ENDBRANCH  18  19
ENDBRANCH  17  18
ENDBRANCH  16  17
ENDBRANCH  14  16
BRANCH  11  28
ATOM     28  CA  MET A   1     -34.503  -7.220  13.438  0.00  0.00    +0.146 C 
BRANCH  28  29
ATOM     29  N   MET A   1     -33.426  -8.063  13.843  0.00  0.00    -0.238 NA
ATOM     30  H   MET A   1     -33.257  -8.215  14.858  0.00  0.00    +0.142 HD
ENDBRANCH  28  29
BRANCH  28  31
ATOM     31  CB  MET A   1     -35.694  -8.047  12.994  0.00  0.00    +0.038 C 
BRANCH  31  32
ATOM     32  CG  MET A   1     -36.906  -7.213  12.693  0.00  0.00    +0.060 C 
BRANCH  32  33
ATOM     33  SD  MET A   1     -38.342  -8.192  12.413  0.00  0.00    -0.139 S 
ATOM     34  CE  MET A   1     -38.805  -8.604  14.053  0.00  0.00    +0.069 C 
ENDBRANCH  32  33
ENDBRANCH  31  32
ENDBRANCH  28  31
ENDBRANCH  11  28
ENDBRANCH   7  14
ENDBRANCH   5   9
ENDBRANCH   1   5
BRANCH   3  35
ATOM     35  CA  SER A   4     -38.377  -6.494  18.025  0.00  0.00    +0.178 C 
BRANCH  35  36
ATOM     36  C   SER A   4     -38.695  -5.627  19.251  0.00  0.00    +0.243 C 
ATOM     37  O   SER A   4     -39.332  -6.090  20.203  0.00  0.00    -0.273 OA
ATOM     38  N   ILE A   5     -38.209  -4.384  19.249  0.00  0.00    -0.297 N 
ATOM     39  H   ILE A   5     -37.633  -4.060  18.446  0.00  0.00    +0.150 HD
BRANCH  38  40
ATOM     40  CA  ILE A   5     -38.475  -3.471  20.359  0.00  0.00    +0.149 C 
BRANCH  40  41
ATOM     41  C   ILE A   5     -40.001  -3.326  20.481  0.00  0.00    +0.244 C 
ATOM     42  O   ILE A   5     -40.519  -3.052  21.561  0.00  0.00    -0.273 OA
ATOM     43  N   TRP A   6     -40.718  -3.527  19.374  0.00  0.00    -0.283 N 
ATOM     44  CA  TRP A   6     -42.173  -3.440  19.383  0.00  0.00    +0.075 C 
ATOM     45  H   TRP A   6     -40.228  -3.751  18.485  0.00  0.00    +0.155 HD
BRANCH  44  46
ATOM     46  C   TRP A   6     -42.910  -4.371  20.332  0.00  0.00    +0.245 C 
ATOM     47  O   TRP A   6     -44.078  -4.148  20.626  0.00  0.00    -0.282 OA
ENDBRANCH  44  46
BRANCH  44  48
ATOM     48  CB  TRP A   6     -42.831  -3.297  18.017  0.00  0.00    +0.072 C 
BRANCH  48  49
ATOM     49  CG  TRP A   6     -42.776  -1.907  17.442  0.00  0.00    +0.002 A 
ATOM     50  CD1 TRP A   6     -42.867  -0.730  18.131  0.00  0.00    +0.068 A 
ATOM     51  NE1 TRP A   6     -42.871   0.334  17.256  0.00  0.00    -0.352 N 
ATOM     52  HE1 TRP A   6     -42.936   1.337  17.525  0.00  0.00    +0.166 HD
ATOM     53  CE2 TRP A   6     -42.776  -0.141  15.975  0.00  0.00    +0.056 A 
ATOM     54  CZ2 TRP A   6     -42.743   0.550  14.758  0.00  0.00    +0.017 A 
ATOM     55  CH2 TRP A   6     -42.646  -0.199  13.602  0.00  0.00    +0.001 A 
ATOM     56  CZ3 TRP A   6     -42.580  -1.609  13.642  0.00  0.00    +0.000 A 
ATOM     57  CE3 TRP A   6     -42.613  -2.295  14.860  0.00  0.00    +0.001 A 
ATOM     58  CD2 TRP A   6     -42.712  -1.553  16.050  0.00  0.00    +0.013 A 
ENDBRANCH  48  49
ENDBRANCH  44  48
ENDBRANCH  40  41
BRANCH  40  59
ATOM     59  CB  ILE A   5     -37.821  -2.080  20.121  0.00  0.00    +0.027 C 
ATOM     60  CG2 ILE A   5     -38.333  -1.485  18.830  0.00  0.00    +0.002 C 
BRANCH  59  61
ATOM     61  CG1 ILE A   5     -38.154  -1.118  21.271  0.00  0.00    +0.002 C 
ATOM     62  CD1 ILE A   5     -37.634  -1.565  22.630  0.00  0.00    +0.000 C 
ENDBRANCH  59  61
ENDBRANCH  40  59
ENDBRANCH  38  40
ENDBRANCH  35  36
BRANCH  35  63
ATOM     63  CB  SER A   4     -37.213  -7.453  18.299  0.00  0.00    +0.166 C 
BRANCH  63  64
ATOM     64  OG  SER A   4     -37.060  -8.401  17.265  0.00  0.00    -0.380 OA
ATOM     65  H   SER A   4     -36.882  -7.931  16.412  0.00  0.00    +0.211 HD
ENDBRANCH  63  64
ENDBRANCH  35  63
ENDBRANCH   3  35
TORSDOF 23
REMARK  Name = ../refined-set-2016/3v4t/3v4t_pocket.pdb
REMARK  251 active torsions:
REMARK  status: ('A' for Active; 'I' for Inactive)
REMARK    1  A    between atoms: _1  and  _3
REMARK    2  A    between atoms: _3  and  _4
REMARK    3  A    between atoms: _3  and  _6
REMARK    4  A    between atoms: _6  and  _7
REMARK    5  A    between atoms: _7  and  _8
REMARK    6  A    between atoms: _8  and  _9
REMARK    7  A    between atoms: _9  and  _10
REMARK    8  A    between atoms: _16  and  _17
REMARK    9  A    between atoms: _16  and  _19
REMARK   10  A    between atoms: _19  and  _20
REMARK   11  A    between atoms: _25  and  _27
REMARK   12  A    between atoms: _27  and  _28
REMARK   13  A    between atoms: _31  and  _33
REMARK   14  A    between atoms: _33  and  _34
REMARK   15  A    between atoms: _37  and  _39
REMARK   16  A    between atoms: _39  and  _40
REMARK   17  A    between atoms: _39  and  _42
REMARK   18  A    between atoms: _42  and  _43
REMARK   19  A    between atoms: _47  and  _48
REMARK   20  A    between atoms: _53  and  _55
REMARK   21  A    between atoms: _55  and  _56
REMARK   22  A    between atoms: _55  and  _58
REMARK   23  A    between atoms: _58  and  _59
REMARK   24  A    between atoms: _62  and  _64
REMARK   25  A    between atoms: _64  and  _65
REMARK   26  A    between atoms: _64  and  _67
REMARK   27  A    between atoms: _67  and  _68
REMARK   28  A    between atoms: _68  and  _69
REMARK   29  A    between atoms: _73  and  _74
REMARK   30  A    between atoms: _73  and  _76
REMARK   31  A    between atoms: _76  and  _77
REMARK   32  A    between atoms: _77  and  _78
REMARK   33  A    between atoms: _78  and  _79
REMARK   34  A    between atoms: _88  and  _90
REMARK   35  A    between atoms: _90  and  _91
REMARK   36  A    between atoms: _94  and  _96
REMARK   37  A    between atoms: _96  and  _97
REMARK   38  A    between atoms: _96  and  _99
REMARK   39  A    between atoms: _99  and  _100
REMARK   40  A    between atoms: _102  and  _104
REMARK   41  A    between atoms: _104  and  _105
REMARK   42  A    between atoms: _104  and  _107
REMARK   43  A    between atoms: _107  and  _108
REMARK   44  A    between atoms: _113  and  _114
REMARK   45  A    between atoms: _113  and  _116
REMARK   46  A    between atoms: _116  and  _117
REMARK   47  A    between atoms: _127  and  _129
REMARK   48  A    between atoms: _129  and  _130
REMARK   49  A    between atoms: _129  and  _132
REMARK   50  A    between atoms: _132  and  _133
REMARK   51  A    between atoms: _136  and  _138
REMARK   52  A    between atoms: _138  and  _139
REMARK   53  A    between atoms: _141  and  _143
REMARK   54  A    between atoms: _143  and  _144
REMARK   55  A    between atoms: _147  and  _149
REMARK   56  A    between atoms: _149  and  _150
REMARK   57  A    between atoms: _149  and  _152
REMARK   58  A    between atoms: _152  and  _153
REMARK   59  A    between atoms: _153  and  _154
REMARK   60  A    between atoms: _154  and  _155
REMARK   61  A    between atoms: _165  and  _166
REMARK   62  A    between atoms: _171  and  _173
REMARK   63  A    between atoms: _173  and  _174
REMARK   64  A    between atoms: _173  and  _176
REMARK   65  A    between atoms: _179  and  _181
REMARK   66  A    between atoms: _181  and  _182
REMARK   67  A    between atoms: _181  and  _184
REMARK   68  A    between atoms: _184  and  _185
REMARK   69  A    between atoms: _188  and  _190
REMARK   70  A    between atoms: _190  and  _191
REMARK   71  A    between atoms: _190  and  _193
REMARK   72  A    between atoms: _193  and  _194
REMARK   73  A    between atoms: _197  and  _199
REMARK   74  A    between atoms: _199  and  _200
REMARK   75  A    between atoms: _199  and  _202
REMARK   76  A    between atoms: _202  and  _203
REMARK   77  A    between atoms: _208  and  _210
REMARK   78  A    between atoms: _210  and  _211
REMARK   79  A    between atoms: _210  and  _213
REMARK   80  A    between atoms: _213  and  _214
REMARK   81  A    between atoms: _217  and  _219
REMARK   82  A    between atoms: _219  and  _220
REMARK   83  A    between atoms: _219  and  _222
REMARK   84  A    between atoms: _222  and  _223
REMARK   85  A    between atoms: _229  and  _231
REMARK   86  A    between atoms: _231  and  _232
REMARK   87  A    between atoms: _234  and  _236
REMARK   88  A    between atoms: _236  and  _237
REMARK   89  A    between atoms: _236  and  _239
REMARK   90  A    between atoms: _239  and  _240
REMARK   91  A    between atoms: _240  and  _241
REMARK   92  A    between atoms: _243  and  _245
REMARK   93  A    between atoms: _245  and  _246
REMARK   94  A    between atoms: _245  and  _248
REMARK   95  A    between atoms: _248  and  _249
REMARK   96  A    between atoms: _252  and  _254
REMARK   97  A    between atoms: _254  and  _255
REMARK   98  A    between atoms: _254  and  _257
REMARK   99  A    between atoms: _257  and  _258
REMARK  100  A    between atoms: _258  and  _259
REMARK  101  A    between atoms: _259  and  _260
REMARK  102  A    between atoms: _260  and  _261
REMARK  103  A    between atoms: _265  and  _267
REMARK  104  A    between atoms: _267  and  _268
REMARK  105  A    between atoms: _267  and  _270
REMARK  106  A    between atoms: _275  and  _276
REMARK  107  A    between atoms: _275  and  _278
REMARK  108  A    between atoms: _278  and  _279
REMARK  109  A    between atoms: _281  and  _283
REMARK  110  A    between atoms: _283  and  _284
REMARK  111  A    between atoms: _283  and  _286
REMARK  112  A    between atoms: _289  and  _291
REMARK  113  A    between atoms: _291  and  _292
REMARK  114  A    between atoms: _294  and  _296
REMARK  115  A    between atoms: _296  and  _297
REMARK  116  A    between atoms: _300  and  _302
REMARK  117  A    between atoms: _302  and  _303
REMARK  118  A    between atoms: _302  and  _305
REMARK  119  A    between atoms: _305  and  _306
REMARK  120  A    between atoms: _309  and  _311
REMARK  121  A    between atoms: _311  and  _312
REMARK  122  A    between atoms: _311  and  _314
REMARK  123  A    between atoms: _317  and  _319
REMARK  124  A    between atoms: _319  and  _320
REMARK  125  A    between atoms: _319  and  _322
REMARK  126  A    between atoms: _322  and  _323
REMARK  127  A    between atoms: _326  and  _328
REMARK  128  A    between atoms: _328  and  _329
REMARK  129  A    between atoms: _332  and  _334
REMARK  130  A    between atoms: _334  and  _335
REMARK  131  A    between atoms: _334  and  _337
REMARK  132  A    between atoms: _337  and  _338
REMARK  133  A    between atoms: _338  and  _339
REMARK  134  A    between atoms: _342  and  _344
REMARK  135  A    between atoms: _344  and  _345
REMARK  136  A    between atoms: _344  and  _347
REMARK  137  A    between atoms: _347  and  _348
REMARK  138  A    between atoms: _348  and  _349
REMARK  139  A    between atoms: _352  and  _354
REMARK  140  A    between atoms: _354  and  _355
REMARK  141  A    between atoms: _354  and  _357
REMARK  142  A    between atoms: _357  and  _358
REMARK  143  A    between atoms: _361  and  _363
REMARK  144  A    between atoms: _363  and  _364
REMARK  145  A    between atoms: _363  and  _366
REMARK  146  A    between atoms: _366  and  _367
REMARK  147  A    between atoms: _367  and  _368
REMARK  148  A    between atoms: _368  and  _369
REMARK  149  A    between atoms: _378  and  _380
REMARK  150  A    between atoms: _380  and  _381
REMARK  151  A    between atoms: _380  and  _383
REMARK  152  A    between atoms: _383  and  _384
REMARK  153  A    between atoms: _387  and  _389
REMARK  154  A    between atoms: _389  and  _390
REMARK  155  A    between atoms: _389  and  _392
REMARK  156  A    between atoms: _392  and  _393
REMARK  157  A    between atoms: _396  and  _398
REMARK  158  A    between atoms: _398  and  _399
REMARK  159  A    between atoms: _403  and  _404
REMARK  160  A    between atoms: _409  and  _411
REMARK  161  A    between atoms: _411  and  _412
REMARK  162  A    between atoms: _411  and  _414
REMARK  163  A    between atoms: _414  and  _415
REMARK  164  A    between atoms: _420  and  _422
REMARK  165  A    between atoms: _422  and  _423
REMARK  166  A    between atoms: _422  and  _425
REMARK  167  A    between atoms: _425  and  _426
REMARK  168  A    between atoms: _433  and  _434
REMARK  169  A    between atoms: _439  and  _441
REMARK  170  A    between atoms: _441  and  _442
REMARK  171  A    between atoms: _441  and  _444
REMARK  172  A    between atoms: _444  and  _445
REMARK  173  A    between atoms: _448  and  _450
REMARK  174  A    between atoms: _450  and  _451
REMARK  175  A    between atoms: _450  and  _453
REMARK  176  A    between atoms: _453  and  _454
REMARK  177  A    between atoms: _457  and  _459
REMARK  178  A    between atoms: _459  and  _460
REMARK  179  A    between atoms: _459  and  _462
REMARK  180  A    between atoms: _462  and  _463
REMARK  181  A    between atoms: _463  and  _464
REMARK  182  A    between atoms: _468  and  _469
REMARK  183  A    between atoms: _468  and  _471
REMARK  184  A    between atoms: _471  and  _472
REMARK  185  A    between atoms: _472  and  _473
REMARK  186  A    between atoms: _478  and  _480
REMARK  187  A    between atoms: _480  and  _481
REMARK  188  A    between atoms: _480  and  _483
REMARK  189  A    between atoms: _483  and  _484
REMARK  190  A    between atoms: _484  and  _485
REMARK  191  A    between atoms: _488  and  _490
REMARK  192  A    between atoms: _490  and  _491
REMARK  193  A    between atoms: _490  and  _493
REMARK  194  A    between atoms: _493  and  _494
REMARK  195  A    between atoms: _497  and  _499
REMARK  196  A    between atoms: _499  and  _500
REMARK  197  A    between atoms: _499  and  _502
REMARK  198  A    between atoms: _502  and  _503
REMARK  199  A    between atoms: _506  and  _508
REMARK  200  A    between atoms: _508  and  _509
REMARK  201  A    between atoms: _508  and  _511
REMARK  202  A    between atoms: _511  and  _512
REMARK  203  A    between atoms: _520  and  _521
REMARK  204  A    between atoms: _520  and  _523
REMARK  205  A    between atoms: _523  and  _524
REMARK  206  A    between atoms: _524  and  _525
REMARK  207  A    between atoms: _528  and  _530
REMARK  208  A    between atoms: _530  and  _531
REMARK  209  A    between atoms: _530  and  _533
REMARK  210  A    between atoms: _533  and  _534
REMARK  211  A    between atoms: _539  and  _541
REMARK  212  A    between atoms: _541  and  _542
REMARK  213  A    between atoms: _541  and  _544
REMARK  214  A    between atoms: _544  and  _545
REMARK  215  A    between atoms: _545  and  _546
REMARK  216  A    between atoms: _546  and  _547
REMARK  217  A    between atoms: _556  and  _558
REMARK  218  A    between atoms: _558  and  _559
REMARK  219  A    between atoms: _558  and  _561
REMARK  220  A    between atoms: _561  and  _562
REMARK  221  A    between atoms: _565  and  _567
REMARK  222  A    between atoms: _567  and  _568
REMARK  223  A    between atoms: _567  and  _570
REMARK  224  A    between atoms: _570  and  _571
REMARK  225  A    between atoms: _574  and  _576
REMARK  226  A    between atoms: _576  and  _577
REMARK  227  A    between atoms: _576  and  _579
REMARK  228  A    between atoms: _579  and  _580
REMARK  229  A    between atoms: _580  and  _581
REMARK  230  A    between atoms: _581  and  _582
REMARK  231  A    between atoms: _591  and  _593
REMARK  232  A    between atoms: _593  and  _594
REMARK  233  A    between atoms: _593  and  _596
REMARK  234  A    between atoms: _596  and  _597
REMARK  235  A    between atoms: _597  and  _598
REMARK  236  A    between atoms: _598  and  _599
REMARK  237  A    between atoms: _608  and  _610
REMARK  238  A    between atoms: _610  and  _611
REMARK  239  A    between atoms: _610  and  _613
REMARK  240  A    between atoms: _613  and  _614
REMARK  241  A    between atoms: _614  and  _615
REMARK  242  A    between atoms: _615  and  _616
REMARK  243  A    between atoms: _625  and  _627
REMARK  244  A    between atoms: _627  and  _628
REMARK  245  A    between atoms: _627  and  _630
REMARK  246  A    between atoms: _630  and  _631
REMARK  247  A    between atoms: _634  and  _636
REMARK  248  A    between atoms: _636  and  _637
REMARK  249  A    between atoms: _636  and  _639
REMARK  250  A    between atoms: _639  and  _640
REMARK  251  A    between atoms: _640  and  _641
REMARK                            x       y       z     vdW  Elec       q    Type
REMARK                         _______ _______ _______ _____ _____    ______ ____
ROOT
ATOM      1  C   VAL A   6     -35.691   4.801  22.663  0.00  0.00    +0.241 C 
ATOM      2  O   VAL A   6     -36.522   4.276  23.407  0.00  0.00    -0.273 OA
ATOM      3  N   ASP A   7     -35.125   5.982  22.904  0.00  0.00    -0.297 N 
ATOM      4  H   ASP A   7     -34.430   6.328  22.212  0.00  0.00    +0.150 HD
ENDROOT
BRANCH   3   5
ATOM      5  CA  ASP A   7     -35.401   6.835  24.064  0.00  0.00    +0.160 C 
BRANCH   5   6
ATOM      6  C   ASP A   7     -36.868   7.261  24.173  0.00  0.00    +0.241 C 
ATOM      7  O   ASP A   7     -37.422   7.370  25.272  0.00  0.00    -0.273 OA
ATOM      8  N   LEU A   8     -37.462   7.554  23.016  0.00  0.00    -0.297 N 
ATOM      9  H   LEU A   8     -36.908   7.484  22.139  0.00  0.00    +0.150 HD
BRANCH   8  10
ATOM     10  CA  LEU A   8     -38.854   7.968  22.931  0.00  0.00    +0.149 C 
BRANCH  10  11
ATOM     11  C   LEU A   8     -39.785   6.825  23.256  0.00  0.00    +0.241 C 
ATOM     12  O   LEU A   8     -40.876   7.042  23.788  0.00  0.00    -0.273 OA
ATOM     13  N   HIS A   9     -39.348   5.607  22.927  0.00  0.00    -0.297 N 
ATOM     14  H   HIS A   9     -38.435   5.506  22.439  0.00  0.00    +0.150 HD
BRANCH  13  15
ATOM     15  CA  HIS A   9     -40.132   4.413  23.242  0.00  0.00    +0.155 C 
BRANCH  15  16
ATOM     16  C   HIS A   9     -40.216   4.309  24.760  0.00  0.00    +0.241 C 
ATOM     17  N   ILE A  10     -39.046   4.206  25.378  0.00  0.00    -0.297 N 
ATOM     18  H   ILE A  10     -38.183   4.210  24.798  0.00  0.00    +0.150 HD
ATOM     19  O   HIS A   9     -41.295   4.329  25.343  0.00  0.00    -0.273 OA
BRANCH  17  20
ATOM     20  CA  ILE A  10     -38.902   4.087  26.826  0.00  0.00    +0.149 C 
BRANCH  20  21
ATOM     21  C   ILE A  10     -39.598   5.208  27.583  0.00  0.00    +0.241 C 
ATOM     22  O   ILE A  10     -40.381   4.970  28.506  0.00  0.00    -0.273 OA
ATOM     23  N   PHE A  11     -39.296   6.429  27.174  0.00  0.00    -0.297 N 
ATOM     24  H   PHE A  11     -38.620   6.539  26.391  0.00  0.00    +0.150 HD
BRANCH  23  25
ATOM     25  CA  PHE A  11     -39.867   7.619  27.770  0.00  0.00    +0.153 C 
BRANCH  25  26
ATOM     26  C   PHE A  11     -41.397   7.611  27.758  0.00  0.00    +0.241 C 
ATOM     27  O   PHE A  11     -42.045   7.864  28.773  0.00  0.00    -0.273 OA
ATOM     28  N   GLY A  12     -41.964   7.314  26.594  0.00  0.00    -0.296 N 
ATOM     29  H   GLY A  12     -41.364   7.105  25.771  0.00  0.00    +0.150 HD
BRANCH  28  30
ATOM     30  CA  GLY A  12     -43.404   7.277  26.454  0.00  0.00    +0.163 C 
BRANCH  30  31
ATOM     31  C   GLY A  12     -44.020   6.273  27.392  0.00  0.00    +0.229 C 
ATOM     32  O   GLY A  12     -45.046   6.547  27.991  0.00  0.00    -0.286 OA
ENDBRANCH  30  31
ENDBRANCH  28  30
ENDBRANCH  25  26
BRANCH  25  33
ATOM     33  CB  PHE A  11     -39.225   8.891  27.219  0.00  0.00    +0.055 C 
BRANCH  33  34
ATOM     34  CG  PHE A  11     -39.971  10.147  27.553  0.00  0.00    -0.020 A 
ATOM     35  CD2 PHE A  11     -39.870  10.722  28.824  0.00  0.00    -0.004 A 
ATOM     36  CE2 PHE A  11     -40.580  11.893  29.139  0.00  0.00    -0.000 A 
ATOM     37  CZ  PHE A  11     -41.395  12.492  28.176  0.00  0.00    -0.000 A 
ATOM     38  CE1 PHE A  11     -41.502  11.923  26.906  0.00  0.00    -0.000 A 
ATOM     39  CD1 PHE A  11     -40.791  10.755  26.601  0.00  0.00    -0.004 A 
ENDBRANCH  33  34
ENDBRANCH  25  33
ENDBRANCH  23  25
ENDBRANCH  20  21
BRANCH  20  40
ATOM     40  CB  ILE A  10     -37.405   4.065  27.206  0.00  0.00    +0.027 C 
ATOM     41  CG2 ILE A  10     -37.223   4.402  28.680  0.00  0.00    +0.002 C 
BRANCH  40  42
ATOM     42  CG1 ILE A  10     -36.819   2.693  26.866  0.00  0.00    +0.002 C 
ATOM     43  CD1 ILE A  10     -35.322   2.638  26.913  0.00  0.00    +0.000 C 
ENDBRANCH  40  42
ENDBRANCH  20  40
ENDBRANCH  17  20
ENDBRANCH  15  16
BRANCH  15  44
ATOM     44  CB  HIS A   9     -39.597   3.120  22.633  0.00  0.00    +0.076 C 
BRANCH  44  45
ATOM     45  CG  HIS A   9     -39.616   3.081  21.136  0.00  0.00    +0.082 A 
ATOM     46  ND1 HIS A   9     -40.352   2.155  20.429  0.00  0.00    -0.227 NA
ATOM     47  CE1 HIS A   9     -40.116   2.298  19.138  0.00  0.00    +0.199 A 
ATOM     48  NE2 HIS A   9     -39.258   3.289  18.979  0.00  0.00    -0.221 NA
ATOM     49  CD2 HIS A   9     -38.932   3.800  20.213  0.00  0.00    +0.115 A 
ENDBRANCH  44  45
ENDBRANCH  15  44
ENDBRANCH  13  15
ENDBRANCH  10  11
BRANCH  10  50
ATOM     50  CB  LEU A   8     -39.200   8.700  21.651  0.00  0.00    +0.029 C 
BRANCH  50  51
ATOM     51  CG  LEU A   8     -38.375   9.949  21.351  0.00  0.00    +0.002 C 
ATOM     52  CD2 LEU A   8     -38.449  10.921  22.545  0.00  0.00    +0.000 C 
ATOM     53  CD1 LEU A   8     -38.909  10.606  20.063  0.00  0.00    +0.000 C 
ENDBRANCH  50  51
ENDBRANCH  10  50
ENDBRANCH   8  10
ENDBRANCH   5   6
BRANCH   5  54
ATOM     54  CB  ASP A   7     -34.498   8.054  24.059  0.00  0.00    +0.143 C 
BRANCH  54  55
ATOM     55  CG  ASP A   7     -34.629   8.847  22.772  0.00  0.00    +0.367 C 
ATOM     56  OD2 ASP A   7     -35.112   9.992  22.826  0.00  0.00    -0.246 OA
ATOM     57  OD1 ASP A   7     -34.270   8.316  21.697  0.00  0.00    -0.246 OA
ENDBRANCH  54  55
ENDBRANCH   5  54
ENDBRANCH   3   5
BRANCH   1  58
ATOM     58  CA  VAL A   6     -35.240   4.115  21.365  0.00  0.00    +0.149 C 
BRANCH  58  60
ATOM     59  C   PRO A   5     -33.491   5.034  19.914  0.00  0.00    +0.241 C 
ATOM     60  N   VAL A   6     -33.850   4.435  21.050  0.00  0.00    -0.297 N 
ATOM     61  H   VAL A   6     -33.111   4.186  21.739  0.00  0.00    +0.150 HD
ATOM     62  O   PRO A   5     -34.302   5.366  19.039  0.00  0.00    -0.273 OA
BRANCH  59  65
ATOM     63  C   ARG A   4     -31.720   4.495  17.437  0.00  0.00    +0.244 C 
ATOM     64  N   PRO A   5     -31.627   5.498  18.322  0.00  0.00    -0.272 N 
ATOM     65  CA  PRO A   5     -31.984   5.301  19.729  0.00  0.00    +0.152 C 
ATOM     66  CB  PRO A   5     -31.534   6.609  20.379  0.00  0.00    +0.031 C 
ATOM     67  CG  PRO A   5     -31.705   7.605  19.274  0.00  0.00    +0.024 C 
ATOM     68  CD  PRO A   5     -31.158   6.875  18.084  0.00  0.00    +0.094 C 
ATOM     69  O   ARG A   4     -32.099   3.367  17.766  0.00  0.00    -0.273 OA
BRANCH  63  70
ATOM     70  CA  ARG A   4     -31.336   4.800  15.994  0.00  0.00    +0.149 C 
BRANCH  70  73
ATOM     71  C   ALA A   3     -28.954   4.601  16.229  0.00  0.00    +0.241 C 
ATOM     72  O   ALA A   3     -29.066   3.586  16.930  0.00  0.00    -0.273 OA
ATOM     73  N   ARG A   4     -29.992   5.274  15.762  0.00  0.00    -0.297 N 
ATOM     74  H   ARG A   4     -29.839   6.151  15.224  0.00  0.00    +0.150 HD
BRANCH  71  75
ATOM     75  CA  ALA A   3     -27.592   5.176  15.880  0.00  0.00    +0.149 C 
ATOM     76  CB  ALA A   3     -27.190   6.225  16.933  0.00  0.00    +0.031 C 
BRANCH  75  78
ATOM     77  C   GLY A   2     -27.896   5.069  13.448  0.00  0.00    +0.243 C 
ATOM     78  N   ALA A   3     -27.552   5.763  14.531  0.00  0.00    -0.297 N 
ATOM     79  H   ALA A   3     -27.246   6.751  14.420  0.00  0.00    +0.150 HD
ATOM     80  O   GLY A   2     -28.302   3.911  13.508  0.00  0.00    -0.273 OA
BRANCH  77  81
ATOM     81  CA  GLY A   2     -27.787   5.770  12.097  0.00  0.00    +0.176 C 
BRANCH  81  83
ATOM     82  C   ILE A   1     -27.858   5.228   9.716  0.00  0.00    +0.238 C 
ATOM     83  N   GLY A   2     -27.777   4.821  10.985  0.00  0.00    -0.296 N 
ATOM     84  H   GLY A   2     -27.705   3.803  11.187  0.00  0.00    +0.150 HD
ATOM     85  O   ILE A   1     -27.948   6.426   9.392  0.00  0.00    -0.274 OA
BRANCH  82  86
ATOM     86  CA  ILE A   1     -27.839   4.143   8.631  0.00  0.00    +0.145 C 
BRANCH  86  87
ATOM     87  CB  ILE A   1     -29.239   4.041   8.043  0.00  0.00    +0.025 C 
ATOM     88  CG2 ILE A   1     -29.246   2.998   6.935  0.00  0.00    +0.002 C 
BRANCH  87  89
ATOM     89  CG1 ILE A   1     -30.239   3.631   9.125  0.00  0.00    +0.002 C 
ATOM     90  CD1 ILE A   1     -31.680   3.571   8.633  0.00  0.00    +0.000 C 
ENDBRANCH  87  89
ENDBRANCH  86  87
BRANCH  86  91
ATOM     91  N   ILE A   1     -27.355   2.811   8.989  0.00  0.00    -0.238 NA
ATOM     92  H   ILE A   1     -28.047   2.039   9.068  0.00  0.00    +0.142 HD
ENDBRANCH  86  91
ENDBRANCH  82  86
ENDBRANCH  81  83
ENDBRANCH  77  81
ENDBRANCH  75  78
ENDBRANCH  71  75
ENDBRANCH  70  73
BRANCH  70  93
ATOM     93  CB  ARG A   4     -31.754   3.734  14.995  0.00  0.00    +0.033 C 
BRANCH  93  94
ATOM     94  CG  ARG A   4     -31.489   4.115  13.554  0.00  0.00    +0.045 C 
BRANCH  94  95
ATOM     95  CD  ARG A   4     -31.937   3.020  12.585  0.00  0.00    +0.174 C 
BRANCH  95  96
ATOM     96  NE  ARG A   4     -33.387   2.883  12.551  0.00  0.00    -0.265 N 
ATOM     97  HE  ARG A   4     -33.938   3.408  13.260  0.00  0.00    +0.259 HD
ATOM     98  CZ  ARG A   4     -34.057   2.135  11.678  0.00  0.00    +0.342 C 
ATOM     99  NH2 ARG A   4     -35.369   2.084  11.735  0.00  0.00    -0.292 N 
ATOM    100 HH21 ARG A   4     -35.879   2.627  12.460  0.00  0.00    +0.255 HD
ATOM    101 HH22 ARG A   4     -35.897   1.501  11.055  0.00  0.00    +0.255 HD
ATOM    102  NH1 ARG A   4     -33.426   1.440  10.743  0.00  0.00    -0.292 N 
ATOM    103 HH11 ARG A   4     -32.388   1.473  10.682  0.00  0.00    +0.255 HD
ATOM    104 HH12 ARG A   4     -33.968   0.861  10.070  0.00  0.00    +0.255 HD
ENDBRANCH  95  96
ENDBRANCH  94  95
ENDBRANCH  93  94
ENDBRANCH  70  93
ENDBRANCH  63  70
ENDBRANCH  59  65
ENDBRANCH  58  60
BRANCH  58 105
ATOM    105  CB  VAL A   6     -35.428   2.593  21.497  0.00  0.00    +0.027 C 
ATOM    106  CG2 VAL A   6     -34.603   2.058  22.674  0.00  0.00    +0.002 C 
ATOM    107  CG1 VAL A   6     -34.991   1.904  20.198  0.00  0.00    +0.002 C 
ENDBRANCH  58 105
ENDBRANCH   1  58
TORSDOF 40
REMARK  Name = ../refined-set-2016/3v4t/3v4t_pocket.pdb
REMARK  251 active torsions:
REMARK  status: ('A' for Active; 'I' for Inactive)
REMARK    1  A    between atoms: _1  and  _3
REMARK    2  A    between atoms: _3  and  _4
REMARK    3  A    between atoms: _3  and  _6
REMARK    4  A    between atoms: _6  and  _7
REMARK    5  A    between atoms: _7  and  _8
REMARK    6  A    between atoms: _8  and  _9
REMARK    7  A    between atoms: _9  and  _10
REMARK    8  A    between atoms: _16  and  _17
REMARK    9  A    between atoms: _16  and  _19
REMARK   10  A    between atoms: _19  and  _20
REMARK   11  A    between atoms: _25  and  _27
REMARK   12  A    between atoms: _27  and  _28
REMARK   13  A    between atoms: _31  and  _33
REMARK   14  A    between atoms: _33  and  _34
REMARK   15  A    between atoms: _37  and  _39
REMARK   16  A    between atoms: _39  and  _40
REMARK   17  A    between atoms: _39  and  _42
REMARK   18  A    between atoms: _42  and  _43
REMARK   19  A    between atoms: _47  and  _48
REMARK   20  A    between atoms: _53  and  _55
REMARK   21  A    between atoms: _55  and  _56
REMARK   22  A    between atoms: _55  and  _58
REMARK   23  A    between atoms: _58  and  _59
REMARK   24  A    between atoms: _62  and  _64
REMARK   25  A    between atoms: _64  and  _65
REMARK   26  A    between atoms: _64  and  _67
REMARK   27  A    between atoms: _67  and  _68
REMARK   28  A    between atoms: _68  and  _69
REMARK   29  A    between atoms: _73  and  _74
REMARK   30  A    between atoms: _73  and  _76
REMARK   31  A    between atoms: _76  and  _77
REMARK   32  A    between atoms: _77  and  _78
REMARK   33  A    between atoms: _78  and  _79
REMARK   34  A    between atoms: _88  and  _90
REMARK   35  A    between atoms: _90  and  _91
REMARK   36  A    between atoms: _94  and  _96
REMARK   37  A    between atoms: _96  and  _97
REMARK   38  A    between atoms: _96  and  _99
REMARK   39  A    between atoms: _99  and  _100
REMARK   40  A    between atoms: _102  and  _104
REMARK   41  A    between atoms: _104  and  _105
REMARK   42  A    between atoms: _104  and  _107
REMARK   43  A    between atoms: _107  and  _108
REMARK   44  A    between atoms: _113  and  _114
REMARK   45  A    between atoms: _113  and  _116
REMARK   46  A    between atoms: _116  and  _117
REMARK   47  A    between atoms: _127  and  _129
REMARK   48  A    between atoms: _129  and  _130
REMARK   49  A    between atoms: _129  and  _132
REMARK   50  A    between atoms: _132  and  _133
REMARK   51  A    between atoms: _136  and  _138
REMARK   52  A    between atoms: _138  and  _139
REMARK   53  A    between atoms: _141  and  _143
REMARK   54  A    between atoms: _143  and  _144
REMARK   55  A    between atoms: _147  and  _149
REMARK   56  A    between atoms: _149  and  _150
REMARK   57  A    between atoms: _149  and  _152
REMARK   58  A    between atoms: _152  and  _153
REMARK   59  A    between atoms: _153  and  _154
REMARK   60  A    between atoms: _154  and  _155
REMARK   61  A    between atoms: _165  and  _166
REMARK   62  A    between atoms: _171  and  _173
REMARK   63  A    between atoms: _173  and  _174
REMARK   64  A    between atoms: _173  and  _176
REMARK   65  A    between atoms: _179  and  _181
REMARK   66  A    between atoms: _181  and  _182
REMARK   67  A    between atoms: _181  and  _184
REMARK   68  A    between atoms: _184  and  _185
REMARK   69  A    between atoms: _188  and  _190
REMARK   70  A    between atoms: _190  and  _191
REMARK   71  A    between atoms: _190  and  _193
REMARK   72  A    between atoms: _193  and  _194
REMARK   73  A    between atoms: _197  and  _199
REMARK   74  A    between atoms: _199  and  _200
REMARK   75  A    between atoms: _199  and  _202
REMARK   76  A    between atoms: _202  and  _203
REMARK   77  A    between atoms: _208  and  _210
REMARK   78  A    between atoms: _210  and  _211
REMARK   79  A    between atoms: _210  and  _213
REMARK   80  A    between atoms: _213  and  _214
REMARK   81  A    between atoms: _217  and  _219
REMARK   82  A    between atoms: _219  and  _220
REMARK   83  A    between atoms: _219  and  _222
REMARK   84  A    between atoms: _222  and  _223
REMARK   85  A    between atoms: _229  and  _231
REMARK   86  A    between atoms: _231  and  _232
REMARK   87  A    between atoms: _234  and  _236
REMARK   88  A    between atoms: _236  and  _237
REMARK   89  A    between atoms: _236  and  _239
REMARK   90  A    between atoms: _239  and  _240
REMARK   91  A    between atoms: _240  and  _241
REMARK   92  A    between atoms: _243  and  _245
REMARK   93  A    between atoms: _245  and  _246
REMARK   94  A    between atoms: _245  and  _248
REMARK   95  A    between atoms: _248  and  _249
REMARK   96  A    between atoms: _252  and  _254
REMARK   97  A    between atoms: _254  and  _255
REMARK   98  A    between atoms: _254  and  _257
REMARK   99  A    between atoms: _257  and  _258
REMARK  100  A    between atoms: _258  and  _259
REMARK  101  A    between atoms: _259  and  _260
REMARK  102  A    between atoms: _260  and  _261
REMARK  103  A    between atoms: _265  and  _267
REMARK  104  A    between atoms: _267  and  _268
REMARK  105  A    between atoms: _267  and  _270
REMARK  106  A    between atoms: _275  and  _276
REMARK  107  A    between atoms: _275  and  _278
REMARK  108  A    between atoms: _278  and  _279
REMARK  109  A    between atoms: _281  and  _283
REMARK  110  A    between atoms: _283  and  _284
REMARK  111  A    between atoms: _283  and  _286
REMARK  112  A    between atoms: _289  and  _291
REMARK  113  A    between atoms: _291  and  _292
REMARK  114  A    between atoms: _294  and  _296
REMARK  115  A    between atoms: _296  and  _297
REMARK  116  A    between atoms: _300  and  _302
REMARK  117  A    between atoms: _302  and  _303
REMARK  118  A    between atoms: _302  and  _305
REMARK  119  A    between atoms: _305  and  _306
REMARK  120  A    between atoms: _309  and  _311
REMARK  121  A    between atoms: _311  and  _312
REMARK  122  A    between atoms: _311  and  _314
REMARK  123  A    between atoms: _317  and  _319
REMARK  124  A    between atoms: _319  and  _320
REMARK  125  A    between atoms: _319  and  _322
REMARK  126  A    between atoms: _322  and  _323
REMARK  127  A    between atoms: _326  and  _328
REMARK  128  A    between atoms: _328  and  _329
REMARK  129  A    between atoms: _332  and  _334
REMARK  130  A    between atoms: _334  and  _335
REMARK  131  A    between atoms: _334  and  _337
REMARK  132  A    between atoms: _337  and  _338
REMARK  133  A    between atoms: _338  and  _339
REMARK  134  A    between atoms: _342  and  _344
REMARK  135  A    between atoms: _344  and  _345
REMARK  136  A    between atoms: _344  and  _347
REMARK  137  A    between atoms: _347  and  _348
REMARK  138  A    between atoms: _348  and  _349
REMARK  139  A    between atoms: _352  and  _354
REMARK  140  A    between atoms: _354  and  _355
REMARK  141  A    between atoms: _354  and  _357
REMARK  142  A    between atoms: _357  and  _358
REMARK  143  A    between atoms: _361  and  _363
REMARK  144  A    between atoms: _363  and  _364
REMARK  145  A    between atoms: _363  and  _366
REMARK  146  A    between atoms: _366  and  _367
REMARK  147  A    between atoms: _367  and  _368
REMARK  148  A    between atoms: _368  and  _369
REMARK  149  A    between atoms: _378  and  _380
REMARK  150  A    between atoms: _380  and  _381
REMARK  151  A    between atoms: _380  and  _383
REMARK  152  A    between atoms: _383  and  _384
REMARK  153  A    between atoms: _387  and  _389
REMARK  154  A    between atoms: _389  and  _390
REMARK  155  A    between atoms: _389  and  _392
REMARK  156  A    between atoms: _392  and  _393
REMARK  157  A    between atoms: _396  and  _398
REMARK  158  A    between atoms: _398  and  _399
REMARK  159  A    between atoms: _403  and  _404
REMARK  160  A    between atoms: _409  and  _411
REMARK  161  A    between atoms: _411  and  _412
REMARK  162  A    between atoms: _411  and  _414
REMARK  163  A    between atoms: _414  and  _415
REMARK  164  A    between atoms: _420  and  _422
REMARK  165  A    between atoms: _422  and  _423
REMARK  166  A    between atoms: _422  and  _425
REMARK  167  A    between atoms: _425  and  _426
REMARK  168  A    between atoms: _433  and  _434
REMARK  169  A    between atoms: _439  and  _441
REMARK  170  A    between atoms: _441  and  _442
REMARK  171  A    between atoms: _441  and  _444
REMARK  172  A    between atoms: _444  and  _445
REMARK  173  A    between atoms: _448  and  _450
REMARK  174  A    between atoms: _450  and  _451
REMARK  175  A    between atoms: _450  and  _453
REMARK  176  A    between atoms: _453  and  _454
REMARK  177  A    between atoms: _457  and  _459
REMARK  178  A    between atoms: _459  and  _460
REMARK  179  A    between atoms: _459  and  _462
REMARK  180  A    between atoms: _462  and  _463
REMARK  181  A    between atoms: _463  and  _464
REMARK  182  A    between atoms: _468  and  _469
REMARK  183  A    between atoms: _468  and  _471
REMARK  184  A    between atoms: _471  and  _472
REMARK  185  A    between atoms: _472  and  _473
REMARK  186  A    between atoms: _478  and  _480
REMARK  187  A    between atoms: _480  and  _481
REMARK  188  A    between atoms: _480  and  _483
REMARK  189  A    between atoms: _483  and  _484
REMARK  190  A    between atoms: _484  and  _485
REMARK  191  A    between atoms: _488  and  _490
REMARK  192  A    between atoms: _490  and  _491
REMARK  193  A    between atoms: _490  and  _493
REMARK  194  A    between atoms: _493  and  _494
REMARK  195  A    between atoms: _497  and  _499
REMARK  196  A    between atoms: _499  and  _500
REMARK  197  A    between atoms: _499  and  _502
REMARK  198  A    between atoms: _502  and  _503
REMARK  199  A    between atoms: _506  and  _508
REMARK  200  A    between atoms: _508  and  _509
REMARK  201  A    between atoms: _508  and  _511
REMARK  202  A    between atoms: _511  and  _512
REMARK  203  A    between atoms: _520  and  _521
REMARK  204  A    between atoms: _520  and  _523
REMARK  205  A    between atoms: _523  and  _524
REMARK  206  A    between atoms: _524  and  _525
REMARK  207  A    between atoms: _528  and  _530
REMARK  208  A    between atoms: _530  and  _531
REMARK  209  A    between atoms: _530  and  _533
REMARK  210  A    between atoms: _533  and  _534
REMARK  211  A    between atoms: _539  and  _541
REMARK  212  A    between atoms: _541  and  _542
REMARK  213  A    between atoms: _541  and  _544
REMARK  214  A    between atoms: _544  and  _545
REMARK  215  A    between atoms: _545  and  _546
REMARK  216  A    between atoms: _546  and  _547
REMARK  217  A    between atoms: _556  and  _558
REMARK  218  A    between atoms: _558  and  _559
REMARK  219  A    between atoms: _558  and  _561
REMARK  220  A    between atoms: _561  and  _562
REMARK  221  A    between atoms: _565  and  _567
REMARK  222  A    between atoms: _567  and  _568
REMARK  223  A    between atoms: _567  and  _570
REMARK  224  A    between atoms: _570  and  _571
REMARK  225  A    between atoms: _574  and  _576
REMARK  226  A    between atoms: _576  and  _577
REMARK  227  A    between atoms: _576  and  _579
REMARK  228  A    between atoms: _579  and  _580
REMARK  229  A    between atoms: _580  and  _581
REMARK  230  A    between atoms: _581  and  _582
REMARK  231  A    between atoms: _591  and  _593
REMARK  232  A    between atoms: _593  and  _594
REMARK  233  A    between atoms: _593  and  _596
REMARK  234  A    between atoms: _596  and  _597
REMARK  235  A    between atoms: _597  and  _598
REMARK  236  A    between atoms: _598  and  _599
REMARK  237  A    between atoms: _608  and  _610
REMARK  238  A    between atoms: _610  and  _611
REMARK  239  A    between atoms: _610  and  _613
REMARK  240  A    between atoms: _613  and  _614
REMARK  241  A    between atoms: _614  and  _615
REMARK  242  A    between atoms: _615  and  _616
REMARK  243  A    between atoms: _625  and  _627
REMARK  244  A    between atoms: _627  and  _628
REMARK  245  A    between atoms: _627  and  _630
REMARK  246  A    between atoms: _630  and  _631
REMARK  247  A    between atoms: _634  and  _636
REMARK  248  A    between atoms: _636  and  _637
REMARK  249  A    between atoms: _636  and  _639
REMARK  250  A    between atoms: _639  and  _640
REMARK  251  A    between atoms: _640  and  _641
REMARK                            x       y       z     vdW  Elec       q    Type
REMARK                         _______ _______ _______ _____ _____    ______ ____
ROOT
ATOM      1  C   SER A   5     -42.293   7.977  15.279  0.00  0.00    +0.258 C 
ATOM      2  O   SER A   5     -43.224   7.761  16.068  0.00  0.00    -0.269 OA
ATOM      3  N   VAL A   6     -42.139   7.317  14.133  0.00  0.00    -0.294 N 
ATOM      4  H   VAL A   6     -41.357   7.577  13.498  0.00  0.00    +0.150 HD
ENDROOT
BRANCH   1   8
ATOM      5  C   VAL A   4     -41.122  11.370  14.869  0.00  0.00    +0.244 C 
ATOM      6  N   SER A   5     -41.675  10.448  15.635  0.00  0.00    -0.280 N 
ATOM      7  H   SER A   5     -42.433  10.719  16.293  0.00  0.00    +0.155 HD
ATOM      8  CA  SER A   5     -41.245   9.064  15.576  0.00  0.00    +0.111 C 
ATOM      9  O   VAL A   4     -40.214  11.121  14.082  0.00  0.00    -0.273 OA
BRANCH   5  10
ATOM     10  CA  VAL A   4     -41.670  12.778  15.031  0.00  0.00    +0.149 C 
BRANCH  10  13
ATOM     11  C   LYS A   3     -40.489  13.390  17.042  0.00  0.00    +0.241 C 
ATOM     12  O   LYS A   3     -41.097  12.566  17.712  0.00  0.00    -0.273 OA
ATOM     13  N   VAL A   4     -40.712  13.583  15.753  0.00  0.00    -0.297 N 
ATOM     14  H   VAL A   4     -40.188  14.328  15.250  0.00  0.00    +0.150 HD
BRANCH  11  15
ATOM     15  CA  LYS A   3     -39.463  14.283  17.685  0.00  0.00    +0.149 C 
BRANCH  15  18
ATOM     16  C   ASP A   2     -39.479  15.487  19.774  0.00  0.00    +0.241 C 
ATOM     17  O   ASP A   2     -38.977  16.491  19.269  0.00  0.00    -0.273 OA
ATOM     18  N   LYS A   3     -39.706  14.376  19.100  0.00  0.00    -0.297 N 
ATOM     19  H   LYS A   3     -40.071  13.544  19.606  0.00  0.00    +0.150 HD
BRANCH  16  20
ATOM     20  CA  ASP A   2     -39.843  15.418  21.248  0.00  0.00    +0.160 C 
BRANCH  20  22
ATOM     21  C   MET A   1     -42.191  14.777  21.009  0.00  0.00    +0.238 C 
ATOM     22  N   ASP A   2     -41.002  14.574  21.586  0.00  0.00    -0.297 N 
ATOM     23  H   ASP A   2     -40.894  13.810  22.283  0.00  0.00    +0.150 HD
ATOM     24  O   MET A   1     -42.390  15.680  20.193  0.00  0.00    -0.274 OA
BRANCH  21  25
ATOM     25  CA  MET A   1     -43.335  13.832  21.384  0.00  0.00    +0.146 C 
BRANCH  25  26
ATOM     26  N   MET A   1     -44.559  14.463  21.889  0.00  0.00    -0.238 NA
ATOM     27  H   MET A   1     -45.388  14.500  21.262  0.00  0.00    +0.142 HD
ENDBRANCH  25  26
BRANCH  25  28
ATOM     28  CB  MET A   1     -43.636  12.855  20.258  0.00  0.00    +0.038 C 
BRANCH  28  29
ATOM     29  CG  MET A   1     -44.795  11.918  20.524  0.00  0.00    +0.060 C 
BRANCH  29  30
ATOM     30  SD  MET A   1     -44.298  10.604  21.621  0.00  0.00    -0.139 S 
ATOM     31  CE  MET A   1     -43.214   9.688  20.531  0.00  0.00    +0.069 C 
ENDBRANCH  29  30
ENDBRANCH  28  29
ENDBRANCH  25  28
ENDBRANCH  21  25
ENDBRANCH  20  22
BRANCH  20  32
ATOM     32  CB  ASP A   2     -38.638  15.253  22.157  0.00  0.00    +0.143 C 
BRANCH  32  33
ATOM     33  CG  ASP A   2     -38.678  16.192  23.323  0.00  0.00    +0.367 C 
ATOM     34  OD2 ASP A   2     -37.616  16.401  23.949  0.00  0.00    -0.246 OA
ATOM     35  OD1 ASP A   2     -39.780  16.723  23.610  0.00  0.00    -0.246 OA
ENDBRANCH  32  33
ENDBRANCH  20  32
ENDBRANCH  16  20
ENDBRANCH  15  18
BRANCH  15  36
ATOM     36  CB  LYS A   3     -38.016  14.009  17.303  0.00  0.00    +0.029 C 
BRANCH  36  37
ATOM     37  CG  LYS A   3     -37.507  12.663  17.680  0.00  0.00    +0.000 C 
BRANCH  37  38
ATOM     38  CD  LYS A   3     -36.118  12.435  17.090  0.00  0.00    -0.024 C 
BRANCH  38  39
ATOM     39  CE  LYS A   3     -35.053  13.197  17.831  0.00  0.00    -0.086 C 
BRANCH  39  40
ATOM     40  NZ  LYS A   3     -33.699  12.765  17.364  0.00  0.00    +0.380 N 
ATOM     41  HZ1 LYS A   3     -32.970  13.296  17.881  0.00  0.00    -0.089 HD
ATOM     42  HZ2 LYS A   3     -33.580  11.747  17.543  0.00  0.00    -0.089 HD
ATOM     43  HZ3 LYS A   3     -33.609  12.952  16.345  0.00  0.00    -0.089 HD
ENDBRANCH  39  40
ENDBRANCH  38  39
ENDBRANCH  37  38
ENDBRANCH  36  37
ENDBRANCH  15  36
ENDBRANCH  11  15
ENDBRANCH  10  13
BRANCH  10  44
ATOM     44  CB  VAL A   4     -41.956  13.379  13.657  0.00  0.00    +0.027 C 
ATOM     45  CG2 VAL A   4     -42.637  14.739  13.838  0.00  0.00    +0.002 C 
ATOM     46  CG1 VAL A   4     -42.831  12.428  12.835  0.00  0.00    +0.002 C 
ENDBRANCH  10  44
ENDBRANCH   5  10
BRANCH   8  47
ATOM     47  CB  SER A   5     -40.194   8.697  16.629  0.00  0.00    +0.183 C 
BRANCH  47  48
ATOM     48  OG  SER A   5     -40.194   7.308  16.869  0.00  0.00    -0.376 OA
ATOM     49  H   SER A   5     -39.986   6.829  16.028  0.00  0.00    +0.211 HD
ENDBRANCH  47  48
ENDBRANCH   8  47
ENDBRANCH   1   8
BRANCH   3  50
ATOM     50  CA  VAL A   6     -43.040   6.240  13.748  0.00  0.00    +0.149 C 
BRANCH  50  51
ATOM     51  C   VAL A   6     -42.980   5.154  14.829  0.00  0.00    +0.241 C 
ATOM     52  O   VAL A   6     -43.994   4.750  15.382  0.00  0.00    -0.273 OA
ATOM     53  N   GLY A   7     -41.771   4.701  15.126  0.00  0.00    -0.295 N 
ATOM     54  H   GLY A   7     -40.941   5.099  14.641  0.00  0.00    +0.150 HD
BRANCH  53  55
ATOM     55  CA  GLY A   7     -41.588   3.659  16.117  0.00  0.00    +0.176 C 
BRANCH  55  56
ATOM     56  C   GLY A   7     -42.138   3.957  17.495  0.00  0.00    +0.243 C 
ATOM     57  O   GLY A   7     -42.781   3.093  18.098  0.00  0.00    -0.273 OA
ATOM     58  N   ALA A   8     -41.879   5.163  18.002  0.00  0.00    -0.297 N 
ATOM     59  H   ALA A   8     -41.325   5.840  17.440  0.00  0.00    +0.150 HD
BRANCH  58  60
ATOM     60  CA  ALA A   8     -42.352   5.557  19.324  0.00  0.00    +0.149 C 
ATOM     61  CB  ALA A   8     -41.646   6.855  19.787  0.00  0.00    +0.031 C 
BRANCH  60  62
ATOM     62  C   ALA A   8     -43.864   5.742  19.352  0.00  0.00    +0.241 C 
ATOM     63  O   ALA A   8     -44.513   5.369  20.335  0.00  0.00    -0.273 OA
ATOM     64  N   THR A   9     -44.419   6.327  18.287  0.00  0.00    -0.295 N 
ATOM     65  H   THR A   9     -43.812   6.637  17.501  0.00  0.00    +0.150 HD
BRANCH  64  66
ATOM     66  CA  THR A   9     -45.867   6.540  18.205  0.00  0.00    +0.176 C 
BRANCH  66  67
ATOM     67  C   THR A   9     -46.583   5.188  18.251  0.00  0.00    +0.243 C 
ATOM     68  O   THR A   9     -47.585   5.028  18.956  0.00  0.00    -0.273 OA
ATOM     69  N   VAL A  10     -46.067   4.206  17.520  0.00  0.00    -0.297 N 
ATOM     70  H   VAL A  10     -45.222   4.381  16.939  0.00  0.00    +0.150 HD
BRANCH  69  71
ATOM     71  CA  VAL A  10     -46.681   2.885  17.530  0.00  0.00    +0.149 C 
BRANCH  71  72
ATOM     72  C   VAL A  10     -46.618   2.280  18.939  0.00  0.00    +0.241 C 
ATOM     73  N   THR A  11     -45.452   2.340  19.588  0.00  0.00    -0.296 N 
ATOM     74  H   THR A  11     -44.642   2.804  19.130  0.00  0.00    +0.150 HD
ATOM     75  O   VAL A  10     -47.621   1.779  19.431  0.00  0.00    -0.273 OA
BRANCH  73  76
ATOM     76  CA  THR A  11     -45.283   1.774  20.920  0.00  0.00    +0.164 C 
BRANCH  76  77
ATOM     77  CB  THR A  11     -43.833   1.926  21.437  0.00  0.00    +0.136 C 
ATOM     78  CG2 THR A  11     -43.790   1.768  22.969  0.00  0.00    +0.034 C 
BRANCH  77  79
ATOM     79  OG1 THR A  11     -42.993   0.939  20.830  0.00  0.00    -0.382 OA
ATOM     80  HG1 THR A  11     -43.329   0.036  21.058  0.00  0.00    +0.210 HD
ENDBRANCH  77  79
ENDBRANCH  76  77
BRANCH  76  81
ATOM     81  C   THR A  11     -46.189   2.370  21.981  0.00  0.00    +0.229 C 
ATOM     82  O   THR A  11     -46.776   1.646  22.784  0.00  0.00    -0.286 OA
ENDBRANCH  76  81
ENDBRANCH  73  76
ENDBRANCH  71  72
BRANCH  71  83
ATOM     83  CB  VAL A  10     -45.984   1.916  16.501  0.00  0.00    +0.027 C 
ATOM     84  CG2 VAL A  10     -46.364   0.451  16.777  0.00  0.00    +0.002 C 
ATOM     85  CG1 VAL A  10     -46.396   2.290  15.076  0.00  0.00    +0.002 C 
ENDBRANCH  71  83
ENDBRANCH  69  71
ENDBRANCH  66  67
BRANCH  66  86
ATOM     86  CB  THR A   9     -46.268   7.305  16.902  0.00  0.00    +0.137 C 
ATOM     87  CG2 THR A   9     -47.769   7.328  16.716  0.00  0.00    +0.034 C 
BRANCH  86  88
ATOM     88  OG1 THR A   9     -45.817   8.660  16.981  0.00  0.00    -0.382 OA
ATOM     89  HG1 THR A   9     -44.832   8.673  17.080  0.00  0.00    +0.210 HD
ENDBRANCH  86  88
ENDBRANCH  66  86
ENDBRANCH  64  66
ENDBRANCH  60  62
ENDBRANCH  58  60
ENDBRANCH  55  56
ENDBRANCH  53  55
ENDBRANCH  50  51
BRANCH  50  90
ATOM     90  CB  VAL A   6     -42.616   5.616  12.388  0.00  0.00    +0.027 C 
ATOM     91  CG2 VAL A   6     -43.420   4.362  12.105  0.00  0.00    +0.002 C 
ATOM     92  CG1 VAL A   6     -42.784   6.632  11.268  0.00  0.00    +0.002 C 
ENDBRANCH  50  90
ENDBRANCH   3  50
TORSDOF 40
REMARK  Name = ../refined-set-2016/3v4t/3v4t_pocket.pdb
REMARK  251 active torsions:
REMARK  status: ('A' for Active; 'I' for Inactive)
REMARK    1  A    between atoms: _1  and  _3
REMARK    2  A    between atoms: _3  and  _4
REMARK    3  A    between atoms: _3  and  _6
REMARK    4  A    between atoms: _6  and  _7
REMARK    5  A    between atoms: _7  and  _8
REMARK    6  A    between atoms: _8  and  _9
REMARK    7  A    between atoms: _9  and  _10
REMARK    8  A    between atoms: _16  and  _17
REMARK    9  A    between atoms: _16  and  _19
REMARK   10  A    between atoms: _19  and  _20
REMARK   11  A    between atoms: _25  and  _27
REMARK   12  A    between atoms: _27  and  _28
REMARK   13  A    between atoms: _31  and  _33
REMARK   14  A    between atoms: _33  and  _34
REMARK   15  A    between atoms: _37  and  _39
REMARK   16  A    between atoms: _39  and  _40
REMARK   17  A    between atoms: _39  and  _42
REMARK   18  A    between atoms: _42  and  _43
REMARK   19  A    between atoms: _47  and  _48
REMARK   20  A    between atoms: _53  and  _55
REMARK   21  A    between atoms: _55  and  _56
REMARK   22  A    between atoms: _55  and  _58
REMARK   23  A    between atoms: _58  and  _59
REMARK   24  A    between atoms: _62  and  _64
REMARK   25  A    between atoms: _64  and  _65
REMARK   26  A    between atoms: _64  and  _67
REMARK   27  A    between atoms: _67  and  _68
REMARK   28  A    between atoms: _68  and  _69
REMARK   29  A    between atoms: _73  and  _74
REMARK   30  A    between atoms: _73  and  _76
REMARK   31  A    between atoms: _76  and  _77
REMARK   32  A    between atoms: _77  and  _78
REMARK   33  A    between atoms: _78  and  _79
REMARK   34  A    between atoms: _88  and  _90
REMARK   35  A    between atoms: _90  and  _91
REMARK   36  A    between atoms: _94  and  _96
REMARK   37  A    between atoms: _96  and  _97
REMARK   38  A    between atoms: _96  and  _99
REMARK   39  A    between atoms: _99  and  _100
REMARK   40  A    between atoms: _102  and  _104
REMARK   41  A    between atoms: _104  and  _105
REMARK   42  A    between atoms: _104  and  _107
REMARK   43  A    between atoms: _107  and  _108
REMARK   44  A    between atoms: _113  and  _114
REMARK   45  A    between atoms: _113  and  _116
REMARK   46  A    between atoms: _116  and  _117
REMARK   47  A    between atoms: _127  and  _129
REMARK   48  A    between atoms: _129  and  _130
REMARK   49  A    between atoms: _129  and  _132
REMARK   50  A    between atoms: _132  and  _133
REMARK   51  A    between atoms: _136  and  _138
REMARK   52  A    between atoms: _138  and  _139
REMARK   53  A    between atoms: _141  and  _143
REMARK   54  A    between atoms: _143  and  _144
REMARK   55  A    between atoms: _147  and  _149
REMARK   56  A    between atoms: _149  and  _150
REMARK   57  A    between atoms: _149  and  _152
REMARK   58  A    between atoms: _152  and  _153
REMARK   59  A    between atoms: _153  and  _154
REMARK   60  A    between atoms: _154  and  _155
REMARK   61  A    between atoms: _165  and  _166
REMARK   62  A    between atoms: _171  and  _173
REMARK   63  A    between atoms: _173  and  _174
REMARK   64  A    between atoms: _173  and  _176
REMARK   65  A    between atoms: _179  and  _181
REMARK   66  A    between atoms: _181  and  _182
REMARK   67  A    between atoms: _181  and  _184
REMARK   68  A    between atoms: _184  and  _185
REMARK   69  A    between atoms: _188  and  _190
REMARK   70  A    between atoms: _190  and  _191
REMARK   71  A    between atoms: _190  and  _193
REMARK   72  A    between atoms: _193  and  _194
REMARK   73  A    between atoms: _197  and  _199
REMARK   74  A    between atoms: _199  and  _200
REMARK   75  A    between atoms: _199  and  _202
REMARK   76  A    between atoms: _202  and  _203
REMARK   77  A    between atoms: _208  and  _210
REMARK   78  A    between atoms: _210  and  _211
REMARK   79  A    between atoms: _210  and  _213
REMARK   80  A    between atoms: _213  and  _214
REMARK   81  A    between atoms: _217  and  _219
REMARK   82  A    between atoms: _219  and  _220
REMARK   83  A    between atoms: _219  and  _222
REMARK   84  A    between atoms: _222  and  _223
REMARK   85  A    between atoms: _229  and  _231
REMARK   86  A    between atoms: _231  and  _232
REMARK   87  A    between atoms: _234  and  _236
REMARK   88  A    between atoms: _236  and  _237
REMARK   89  A    between atoms: _236  and  _239
REMARK   90  A    between atoms: _239  and  _240
REMARK   91  A    between atoms: _240  and  _241
REMARK   92  A    between atoms: _243  and  _245
REMARK   93  A    between atoms: _245  and  _246
REMARK   94  A    between atoms: _245  and  _248
REMARK   95  A    between atoms: _248  and  _249
REMARK   96  A    between atoms: _252  and  _254
REMARK   97  A    between atoms: _254  and  _255
REMARK   98  A    between atoms: _254  and  _257
REMARK   99  A    between atoms: _257  and  _258
REMARK  100  A    between atoms: _258  and  _259
REMARK  101  A    between atoms: _259  and  _260
REMARK  102  A    between atoms: _260  and  _261
REMARK  103  A    between atoms: _265  and  _267
REMARK  104  A    between atoms: _267  and  _268
REMARK  105  A    between atoms: _267  and  _270
REMARK  106  A    between atoms: _275  and  _276
REMARK  107  A    between atoms: _275  and  _278
REMARK  108  A    between atoms: _278  and  _279
REMARK  109  A    between atoms: _281  and  _283
REMARK  110  A    between atoms: _283  and  _284
REMARK  111  A    between atoms: _283  and  _286
REMARK  112  A    between atoms: _289  and  _291
REMARK  113  A    between atoms: _291  and  _292
REMARK  114  A    between atoms: _294  and  _296
REMARK  115  A    between atoms: _296  and  _297
REMARK  116  A    between atoms: _300  and  _302
REMARK  117  A    between atoms: _302  and  _303
REMARK  118  A    between atoms: _302  and  _305
REMARK  119  A    between atoms: _305  and  _306
REMARK  120  A    between atoms: _309  and  _311
REMARK  121  A    between atoms: _311  and  _312
REMARK  122  A    between atoms: _311  and  _314
REMARK  123  A    between atoms: _317  and  _319
REMARK  124  A    between atoms: _319  and  _320
REMARK  125  A    between atoms: _319  and  _322
REMARK  126  A    between atoms: _322  and  _323
REMARK  127  A    between atoms: _326  and  _328
REMARK  128  A    between atoms: _328  and  _329
REMARK  129  A    between atoms: _332  and  _334
REMARK  130  A    between atoms: _334  and  _335
REMARK  131  A    between atoms: _334  and  _337
REMARK  132  A    between atoms: _337  and  _338
REMARK  133  A    between atoms: _338  and  _339
REMARK  134  A    between atoms: _342  and  _344
REMARK  135  A    between atoms: _344  and  _345
REMARK  136  A    between atoms: _344  and  _347
REMARK  137  A    between atoms: _347  and  _348
REMARK  138  A    between atoms: _348  and  _349
REMARK  139  A    between atoms: _352  and  _354
REMARK  140  A    between atoms: _354  and  _355
REMARK  141  A    between atoms: _354  and  _357
REMARK  142  A    between atoms: _357  and  _358
REMARK  143  A    between atoms: _361  and  _363
REMARK  144  A    between atoms: _363  and  _364
REMARK  145  A    between atoms: _363  and  _366
REMARK  146  A    between atoms: _366  and  _367
REMARK  147  A    between atoms: _367  and  _368
REMARK  148  A    between atoms: _368  and  _369
REMARK  149  A    between atoms: _378  and  _380
REMARK  150  A    between atoms: _380  and  _381
REMARK  151  A    between atoms: _380  and  _383
REMARK  152  A    between atoms: _383  and  _384
REMARK  153  A    between atoms: _387  and  _389
REMARK  154  A    between atoms: _389  and  _390
REMARK  155  A    between atoms: _389  and  _392
REMARK  156  A    between atoms: _392  and  _393
REMARK  157  A    between atoms: _396  and  _398
REMARK  158  A    between atoms: _398  and  _399
REMARK  159  A    between atoms: _403  and  _404
REMARK  160  A    between atoms: _409  and  _411
REMARK  161  A    between atoms: _411  and  _412
REMARK  162  A    between atoms: _411  and  _414
REMARK  163  A    between atoms: _414  and  _415
REMARK  164  A    between atoms: _420  and  _422
REMARK  165  A    between atoms: _422  and  _423
REMARK  166  A    between atoms: _422  and  _425
REMARK  167  A    between atoms: _425  and  _426
REMARK  168  A    between atoms: _433  and  _434
REMARK  169  A    between atoms: _439  and  _441
REMARK  170  A    between atoms: _441  and  _442
REMARK  171  A    between atoms: _441  and  _444
REMARK  172  A    between atoms: _444  and  _445
REMARK  173  A    between atoms: _448  and  _450
REMARK  174  A    between atoms: _450  and  _451
REMARK  175  A    between atoms: _450  and  _453
REMARK  176  A    between atoms: _453  and  _454
REMARK  177  A    between atoms: _457  and  _459
REMARK  178  A    between atoms: _459  and  _460
REMARK  179  A    between atoms: _459  and  _462
REMARK  180  A    between atoms: _462  and  _463
REMARK  181  A    between atoms: _463  and  _464
REMARK  182  A    between atoms: _468  and  _469
REMARK  183  A    between atoms: _468  and  _471
REMARK  184  A    between atoms: _471  and  _472
REMARK  185  A    between atoms: _472  and  _473
REMARK  186  A    between atoms: _478  and  _480
REMARK  187  A    between atoms: _480  and  _481
REMARK  188  A    between atoms: _480  and  _483
REMARK  189  A    between atoms: _483  and  _484
REMARK  190  A    between atoms: _484  and  _485
REMARK  191  A    between atoms: _488  and  _490
REMARK  192  A    between atoms: _490  and  _491
REMARK  193  A    between atoms: _490  and  _493
REMARK  194  A    between atoms: _493  and  _494
REMARK  195  A    between atoms: _497  and  _499
REMARK  196  A    between atoms: _499  and  _500
REMARK  197  A    between atoms: _499  and  _502
REMARK  198  A    between atoms: _502  and  _503
REMARK  199  A    between atoms: _506  and  _508
REMARK  200  A    between atoms: _508  and  _509
REMARK  201  A    between atoms: _508  and  _511
REMARK  202  A    between atoms: _511  and  _512
REMARK  203  A    between atoms: _520  and  _521
REMARK  204  A    between atoms: _520  and  _523
REMARK  205  A    between atoms: _523  and  _524
REMARK  206  A    between atoms: _524  and  _525
REMARK  207  A    between atoms: _528  and  _530
REMARK  208  A    between atoms: _530  and  _531
REMARK  209  A    between atoms: _530  and  _533
REMARK  210  A    between atoms: _533  and  _534
REMARK  211  A    between atoms: _539  and  _541
REMARK  212  A    between atoms: _541  and  _542
REMARK  213  A    between atoms: _541  and  _544
REMARK  214  A    between atoms: _544  and  _545
REMARK  215  A    between atoms: _545  and  _546
REMARK  216  A    between atoms: _546  and  _547
REMARK  217  A    between atoms: _556  and  _558
REMARK  218  A    between atoms: _558  and  _559
REMARK  219  A    between atoms: _558  and  _561
REMARK  220  A    between atoms: _561  and  _562
REMARK  221  A    between atoms: _565  and  _567
REMARK  222  A    between atoms: _567  and  _568
REMARK  223  A    between atoms: _567  and  _570
REMARK  224  A    between atoms: _570  and  _571
REMARK  225  A    between atoms: _574  and  _576
REMARK  226  A    between atoms: _576  and  _577
REMARK  227  A    between atoms: _576  and  _579
REMARK  228  A    between atoms: _579  and  _580
REMARK  229  A    between atoms: _580  and  _581
REMARK  230  A    between atoms: _581  and  _582
REMARK  231  A    between atoms: _591  and  _593
REMARK  232  A    between atoms: _593  and  _594
REMARK  233  A    between atoms: _593  and  _596
REMARK  234  A    between atoms: _596  and  _597
REMARK  235  A    between atoms: _597  and  _598
REMARK  236  A    between atoms: _598  and  _599
REMARK  237  A    between atoms: _608  and  _610
REMARK  238  A    between atoms: _610  and  _611
REMARK  239  A    between atoms: _610  and  _613
REMARK  240  A    between atoms: _613  and  _614
REMARK  241  A    between atoms: _614  and  _615
REMARK  242  A    between atoms: _615  and  _616
REMARK  243  A    between atoms: _625  and  _627
REMARK  244  A    between atoms: _627  and  _628
REMARK  245  A    between atoms: _627  and  _630
REMARK  246  A    between atoms: _630  and  _631
REMARK  247  A    between atoms: _634  and  _636
REMARK  248  A    between atoms: _636  and  _637
REMARK  249  A    between atoms: _636  and  _639
REMARK  250  A    between atoms: _639  and  _640
REMARK  251  A    between atoms: _640  and  _641
REMARK                            x       y       z     vdW  Elec       q    Type
REMARK                         _______ _______ _______ _____ _____    ______ ____
ROOT
ATOM      1  CA  ALA A   1     -46.192  10.447  13.361  0.00  0.00    +0.133 C 
ATOM      2  CB  ALA A   1     -45.339   9.180  13.254  0.00  0.00    +0.027 C 
ENDROOT
BRANCH   1   3
ATOM      3  N   ALA A   1     -46.561  10.702  14.754  0.00  0.00    -0.239 NA
ATOM      4  H   ALA A   1     -46.377   9.978  15.478  0.00  0.00    +0.142 HD
ENDBRANCH   1   3
BRANCH   1   5
ATOM      5  C   ALA A   1     -47.506  10.277  12.573  0.00  0.00    +0.224 C 
ATOM      6  O   ALA A   1     -48.496   9.786  13.114  0.00  0.00    -0.287 OA
ENDBRANCH   1   5
TORSDOF 2
REMARK  Name = ../refined-set-2016/3v4t/3v4t_pocket.pdb
REMARK  251 active torsions:
REMARK  status: ('A' for Active; 'I' for Inactive)
REMARK    1  A    between atoms: _1  and  _3
REMARK    2  A    between atoms: _3  and  _4
REMARK    3  A    between atoms: _3  and  _6
REMARK    4  A    between atoms: _6  and  _7
REMARK    5  A    between atoms: _7  and  _8
REMARK    6  A    between atoms: _8  and  _9
REMARK    7  A    between atoms: _9  and  _10
REMARK    8  A    between atoms: _16  and  _17
REMARK    9  A    between atoms: _16  and  _19
REMARK   10  A    between atoms: _19  and  _20
REMARK   11  A    between atoms: _25  and  _27
REMARK   12  A    between atoms: _27  and  _28
REMARK   13  A    between atoms: _31  and  _33
REMARK   14  A    between atoms: _33  and  _34
REMARK   15  A    between atoms: _37  and  _39
REMARK   16  A    between atoms: _39  and  _40
REMARK   17  A    between atoms: _39  and  _42
REMARK   18  A    between atoms: _42  and  _43
REMARK   19  A    between atoms: _47  and  _48
REMARK   20  A    between atoms: _53  and  _55
REMARK   21  A    between atoms: _55  and  _56
REMARK   22  A    between atoms: _55  and  _58
REMARK   23  A    between atoms: _58  and  _59
REMARK   24  A    between atoms: _62  and  _64
REMARK   25  A    between atoms: _64  and  _65
REMARK   26  A    between atoms: _64  and  _67
REMARK   27  A    between atoms: _67  and  _68
REMARK   28  A    between atoms: _68  and  _69
REMARK   29  A    between atoms: _73  and  _74
REMARK   30  A    between atoms: _73  and  _76
REMARK   31  A    between atoms: _76  and  _77
REMARK   32  A    between atoms: _77  and  _78
REMARK   33  A    between atoms: _78  and  _79
REMARK   34  A    between atoms: _88  and  _90
REMARK   35  A    between atoms: _90  and  _91
REMARK   36  A    between atoms: _94  and  _96
REMARK   37  A    between atoms: _96  and  _97
REMARK   38  A    between atoms: _96  and  _99
REMARK   39  A    between atoms: _99  and  _100
REMARK   40  A    between atoms: _102  and  _104
REMARK   41  A    between atoms: _104  and  _105
REMARK   42  A    between atoms: _104  and  _107
REMARK   43  A    between atoms: _107  and  _108
REMARK   44  A    between atoms: _113  and  _114
REMARK   45  A    between atoms: _113  and  _116
REMARK   46  A    between atoms: _116  and  _117
REMARK   47  A    between atoms: _127  and  _129
REMARK   48  A    between atoms: _129  and  _130
REMARK   49  A    between atoms: _129  and  _132
REMARK   50  A    between atoms: _132  and  _133
REMARK   51  A    between atoms: _136  and  _138
REMARK   52  A    between atoms: _138  and  _139
REMARK   53  A    between atoms: _141  and  _143
REMARK   54  A    between atoms: _143  and  _144
REMARK   55  A    between atoms: _147  and  _149
REMARK   56  A    between atoms: _149  and  _150
REMARK   57  A    between atoms: _149  and  _152
REMARK   58  A    between atoms: _152  and  _153
REMARK   59  A    between atoms: _153  and  _154
REMARK   60  A    between atoms: _154  and  _155
REMARK   61  A    between atoms: _165  and  _166
REMARK   62  A    between atoms: _171  and  _173
REMARK   63  A    between atoms: _173  and  _174
REMARK   64  A    between atoms: _173  and  _176
REMARK   65  A    between atoms: _179  and  _181
REMARK   66  A    between atoms: _181  and  _182
REMARK   67  A    between atoms: _181  and  _184
REMARK   68  A    between atoms: _184  and  _185
REMARK   69  A    between atoms: _188  and  _190
REMARK   70  A    between atoms: _190  and  _191
REMARK   71  A    between atoms: _190  and  _193
REMARK   72  A    between atoms: _193  and  _194
REMARK   73  A    between atoms: _197  and  _199
REMARK   74  A    between atoms: _199  and  _200
REMARK   75  A    between atoms: _199  and  _202
REMARK   76  A    between atoms: _202  and  _203
REMARK   77  A    between atoms: _208  and  _210
REMARK   78  A    between atoms: _210  and  _211
REMARK   79  A    between atoms: _210  and  _213
REMARK   80  A    between atoms: _213  and  _214
REMARK   81  A    between atoms: _217  and  _219
REMARK   82  A    between atoms: _219  and  _220
REMARK   83  A    between atoms: _219  and  _222
REMARK   84  A    between atoms: _222  and  _223
REMARK   85  A    between atoms: _229  and  _231
REMARK   86  A    between atoms: _231  and  _232
REMARK   87  A    between atoms: _234  and  _236
REMARK   88  A    between atoms: _236  and  _237
REMARK   89  A    between atoms: _236  and  _239
REMARK   90  A    between atoms: _239  and  _240
REMARK   91  A    between atoms: _240  and  _241
REMARK   92  A    between atoms: _243  and  _245
REMARK   93  A    between atoms: _245  and  _246
REMARK   94  A    between atoms: _245  and  _248
REMARK   95  A    between atoms: _248  and  _249
REMARK   96  A    between atoms: _252  and  _254
REMARK   97  A    between atoms: _254  and  _255
REMARK   98  A    between atoms: _254  and  _257
REMARK   99  A    between atoms: _257  and  _258
REMARK  100  A    between atoms: _258  and  _259
REMARK  101  A    between atoms: _259  and  _260
REMARK  102  A    between atoms: _260  and  _261
REMARK  103  A    between atoms: _265  and  _267
REMARK  104  A    between atoms: _267  and  _268
REMARK  105  A    between atoms: _267  and  _270
REMARK  106  A    between atoms: _275  and  _276
REMARK  107  A    between atoms: _275  and  _278
REMARK  108  A    between atoms: _278  and  _279
REMARK  109  A    between atoms: _281  and  _283
REMARK  110  A    between atoms: _283  and  _284
REMARK  111  A    between atoms: _283  and  _286
REMARK  112  A    between atoms: _289  and  _291
REMARK  113  A    between atoms: _291  and  _292
REMARK  114  A    between atoms: _294  and  _296
REMARK  115  A    between atoms: _296  and  _297
REMARK  116  A    between atoms: _300  and  _302
REMARK  117  A    between atoms: _302  and  _303
REMARK  118  A    between atoms: _302  and  _305
REMARK  119  A    between atoms: _305  and  _306
REMARK  120  A    between atoms: _309  and  _311
REMARK  121  A    between atoms: _311  and  _312
REMARK  122  A    between atoms: _311  and  _314
REMARK  123  A    between atoms: _317  and  _319
REMARK  124  A    between atoms: _319  and  _320
REMARK  125  A    between atoms: _319  and  _322
REMARK  126  A    between atoms: _322  and  _323
REMARK  127  A    between atoms: _326  and  _328
REMARK  128  A    between atoms: _328  and  _329
REMARK  129  A    between atoms: _332  and  _334
REMARK  130  A    between atoms: _334  and  _335
REMARK  131  A    between atoms: _334  and  _337
REMARK  132  A    between atoms: _337  and  _338
REMARK  133  A    between atoms: _338  and  _339
REMARK  134  A    between atoms: _342  and  _344
REMARK  135  A    between atoms: _344  and  _345
REMARK  136  A    between atoms: _344  and  _347
REMARK  137  A    between atoms: _347  and  _348
REMARK  138  A    between atoms: _348  and  _349
REMARK  139  A    between atoms: _352  and  _354
REMARK  140  A    between atoms: _354  and  _355
REMARK  141  A    between atoms: _354  and  _357
REMARK  142  A    between atoms: _357  and  _358
REMARK  143  A    between atoms: _361  and  _363
REMARK  144  A    between atoms: _363  and  _364
REMARK  145  A    between atoms: _363  and  _366
REMARK  146  A    between atoms: _366  and  _367
REMARK  147  A    between atoms: _367  and  _368
REMARK  148  A    between atoms: _368  and  _369
REMARK  149  A    between atoms: _378  and  _380
REMARK  150  A    between atoms: _380  and  _381
REMARK  151  A    between atoms: _380  and  _383
REMARK  152  A    between atoms: _383  and  _384
REMARK  153  A    between atoms: _387  and  _389
REMARK  154  A    between atoms: _389  and  _390
REMARK  155  A    between atoms: _389  and  _392
REMARK  156  A    between atoms: _392  and  _393
REMARK  157  A    between atoms: _396  and  _398
REMARK  158  A    between atoms: _398  and  _399
REMARK  159  A    between atoms: _403  and  _404
REMARK  160  A    between atoms: _409  and  _411
REMARK  161  A    between atoms: _411  and  _412
REMARK  162  A    between atoms: _411  and  _414
REMARK  163  A    between atoms: _414  and  _415
REMARK  164  A    between atoms: _420  and  _422
REMARK  165  A    between atoms: _422  and  _423
REMARK  166  A    between atoms: _422  and  _425
REMARK  167  A    between atoms: _425  and  _426
REMARK  168  A    between atoms: _433  and  _434
REMARK  169  A    between atoms: _439  and  _441
REMARK  170  A    between atoms: _441  and  _442
REMARK  171  A    between atoms: _441  and  _444
REMARK  172  A    between atoms: _444  and  _445
REMARK  173  A    between atoms: _448  and  _450
REMARK  174  A    between atoms: _450  and  _451
REMARK  175  A    between atoms: _450  and  _453
REMARK  176  A    between atoms: _453  and  _454
REMARK  177  A    between atoms: _457  and  _459
REMARK  178  A    between atoms: _459  and  _460
REMARK  179  A    between atoms: _459  and  _462
REMARK  180  A    between atoms: _462  and  _463
REMARK  181  A    between atoms: _463  and  _464
REMARK  182  A    between atoms: _468  and  _469
REMARK  183  A    between atoms: _468  and  _471
REMARK  184  A    between atoms: _471  and  _472
REMARK  185  A    between atoms: _472  and  _473
REMARK  186  A    between atoms: _478  and  _480
REMARK  187  A    between atoms: _480  and  _481
REMARK  188  A    between atoms: _480  and  _483
REMARK  189  A    between atoms: _483  and  _484
REMARK  190  A    between atoms: _484  and  _485
REMARK  191  A    between atoms: _488  and  _490
REMARK  192  A    between atoms: _490  and  _491
REMARK  193  A    between atoms: _490  and  _493
REMARK  194  A    between atoms: _493  and  _494
REMARK  195  A    between atoms: _497  and  _499
REMARK  196  A    between atoms: _499  and  _500
REMARK  197  A    between atoms: _499  and  _502
REMARK  198  A    between atoms: _502  and  _503
REMARK  199  A    between atoms: _506  and  _508
REMARK  200  A    between atoms: _508  and  _509
REMARK  201  A    between atoms: _508  and  _511
REMARK  202  A    between atoms: _511  and  _512
REMARK  203  A    between atoms: _520  and  _521
REMARK  204  A    between atoms: _520  and  _523
REMARK  205  A    between atoms: _523  and  _524
REMARK  206  A    between atoms: _524  and  _525
REMARK  207  A    between atoms: _528  and  _530
REMARK  208  A    between atoms: _530  and  _531
REMARK  209  A    between atoms: _530  and  _533
REMARK  210  A    between atoms: _533  and  _534
REMARK  211  A    between atoms: _539  and  _541
REMARK  212  A    between atoms: _541  and  _542
REMARK  213  A    between atoms: _541  and  _544
REMARK  214  A    between atoms: _544  and  _545
REMARK  215  A    between atoms: _545  and  _546
REMARK  216  A    between atoms: _546  and  _547
REMARK  217  A    between atoms: _556  and  _558
REMARK  218  A    between atoms: _558  and  _559
REMARK  219  A    between atoms: _558  and  _561
REMARK  220  A    between atoms: _561  and  _562
REMARK  221  A    between atoms: _565  and  _567
REMARK  222  A    between atoms: _567  and  _568
REMARK  223  A    between atoms: _567  and  _570
REMARK  224  A    between atoms: _570  and  _571
REMARK  225  A    between atoms: _574  and  _576
REMARK  226  A    between atoms: _576  and  _577
REMARK  227  A    between atoms: _576  and  _579
REMARK  228  A    between atoms: _579  and  _580
REMARK  229  A    between atoms: _580  and  _581
REMARK  230  A    between atoms: _581  and  _582
REMARK  231  A    between atoms: _591  and  _593
REMARK  232  A    between atoms: _593  and  _594
REMARK  233  A    between atoms: _593  and  _596
REMARK  234  A    between atoms: _596  and  _597
REMARK  235  A    between atoms: _597  and  _598
REMARK  236  A    between atoms: _598  and  _599
REMARK  237  A    between atoms: _608  and  _610
REMARK  238  A    between atoms: _610  and  _611
REMARK  239  A    between atoms: _610  and  _613
REMARK  240  A    between atoms: _613  and  _614
REMARK  241  A    between atoms: _614  and  _615
REMARK  242  A    between atoms: _615  and  _616
REMARK  243  A    between atoms: _625  and  _627
REMARK  244  A    between atoms: _627  and  _628
REMARK  245  A    between atoms: _627  and  _630
REMARK  246  A    between atoms: _630  and  _631
REMARK  247  A    between atoms: _634  and  _636
REMARK  248  A    between atoms: _636  and  _637
REMARK  249  A    between atoms: _636  and  _639
REMARK  250  A    between atoms: _639  and  _640
REMARK  251  A    between atoms: _640  and  _641
REMARK                            x       y       z     vdW  Elec       q    Type
REMARK                         _______ _______ _______ _____ _____    ______ ____
ROOT
ATOM      1  CA  GLU A   1     -47.282   7.605   8.565  0.00  0.00    +0.134 C 
ENDROOT
BRANCH   1   2
ATOM      2  N   GLU A   1     -47.502   8.714   9.493  0.00  0.00    -0.239 NA
ATOM      3  H   GLU A   1     -46.804   8.887  10.244  0.00  0.00    +0.142 HD
ENDBRANCH   1   2
BRANCH   1   4
ATOM      4  C   GLU A   1     -48.509   6.741   8.278  0.00  0.00    +0.224 C 
ATOM      5  O   GLU A   1     -49.247   6.398   9.196  0.00  0.00    -0.287 OA
ENDBRANCH   1   4
BRANCH   1   6
ATOM      6  CB  GLU A   1     -46.035   6.777   8.880  0.00  0.00    +0.037 C 
BRANCH   6   7
ATOM      7  CG  GLU A   1     -44.745   7.258   8.252  0.00  0.00    +0.116 C 
BRANCH   7   8
ATOM      8  CD  GLU A   1     -44.238   8.579   8.817  0.00  0.00    +0.365 C 
ATOM      9  OE2 GLU A   1     -44.833   9.119   9.792  0.00  0.00    -0.246 OA
ATOM     10  OE1 GLU A   1     -43.225   9.075   8.275  0.00  0.00    -0.246 OA
ENDBRANCH   7   8
ENDBRANCH   6   7
ENDBRANCH   1   6
TORSDOF 5
REMARK  Name = ../refined-set-2016/3v4t/3v4t_pocket.pdb
REMARK  251 active torsions:
REMARK  status: ('A' for Active; 'I' for Inactive)
REMARK    1  A    between atoms: _1  and  _3
REMARK    2  A    between atoms: _3  and  _4
REMARK    3  A    between atoms: _3  and  _6
REMARK    4  A    between atoms: _6  and  _7
REMARK    5  A    between atoms: _7  and  _8
REMARK    6  A    between atoms: _8  and  _9
REMARK    7  A    between atoms: _9  and  _10
REMARK    8  A    between atoms: _16  and  _17
REMARK    9  A    between atoms: _16  and  _19
REMARK   10  A    between atoms: _19  and  _20
REMARK   11  A    between atoms: _25  and  _27
REMARK   12  A    between atoms: _27  and  _28
REMARK   13  A    between atoms: _31  and  _33
REMARK   14  A    between atoms: _33  and  _34
REMARK   15  A    between atoms: _37  and  _39
REMARK   16  A    between atoms: _39  and  _40
REMARK   17  A    between atoms: _39  and  _42
REMARK   18  A    between atoms: _42  and  _43
REMARK   19  A    between atoms: _47  and  _48
REMARK   20  A    between atoms: _53  and  _55
REMARK   21  A    between atoms: _55  and  _56
REMARK   22  A    between atoms: _55  and  _58
REMARK   23  A    between atoms: _58  and  _59
REMARK   24  A    between atoms: _62  and  _64
REMARK   25  A    between atoms: _64  and  _65
REMARK   26  A    between atoms: _64  and  _67
REMARK   27  A    between atoms: _67  and  _68
REMARK   28  A    between atoms: _68  and  _69
REMARK   29  A    between atoms: _73  and  _74
REMARK   30  A    between atoms: _73  and  _76
REMARK   31  A    between atoms: _76  and  _77
REMARK   32  A    between atoms: _77  and  _78
REMARK   33  A    between atoms: _78  and  _79
REMARK   34  A    between atoms: _88  and  _90
REMARK   35  A    between atoms: _90  and  _91
REMARK   36  A    between atoms: _94  and  _96
REMARK   37  A    between atoms: _96  and  _97
REMARK   38  A    between atoms: _96  and  _99
REMARK   39  A    between atoms: _99  and  _100
REMARK   40  A    between atoms: _102  and  _104
REMARK   41  A    between atoms: _104  and  _105
REMARK   42  A    between atoms: _104  and  _107
REMARK   43  A    between atoms: _107  and  _108
REMARK   44  A    between atoms: _113  and  _114
REMARK   45  A    between atoms: _113  and  _116
REMARK   46  A    between atoms: _116  and  _117
REMARK   47  A    between atoms: _127  and  _129
REMARK   48  A    between atoms: _129  and  _130
REMARK   49  A    between atoms: _129  and  _132
REMARK   50  A    between atoms: _132  and  _133
REMARK   51  A    between atoms: _136  and  _138
REMARK   52  A    between atoms: _138  and  _139
REMARK   53  A    between atoms: _141  and  _143
REMARK   54  A    between atoms: _143  and  _144
REMARK   55  A    between atoms: _147  and  _149
REMARK   56  A    between atoms: _149  and  _150
REMARK   57  A    between atoms: _149  and  _152
REMARK   58  A    between atoms: _152  and  _153
REMARK   59  A    between atoms: _153  and  _154
REMARK   60  A    between atoms: _154  and  _155
REMARK   61  A    between atoms: _165  and  _166
REMARK   62  A    between atoms: _171  and  _173
REMARK   63  A    between atoms: _173  and  _174
REMARK   64  A    between atoms: _173  and  _176
REMARK   65  A    between atoms: _179  and  _181
REMARK   66  A    between atoms: _181  and  _182
REMARK   67  A    between atoms: _181  and  _184
REMARK   68  A    between atoms: _184  and  _185
REMARK   69  A    between atoms: _188  and  _190
REMARK   70  A    between atoms: _190  and  _191
REMARK   71  A    between atoms: _190  and  _193
REMARK   72  A    between atoms: _193  and  _194
REMARK   73  A    between atoms: _197  and  _199
REMARK   74  A    between atoms: _199  and  _200
REMARK   75  A    between atoms: _199  and  _202
REMARK   76  A    between atoms: _202  and  _203
REMARK   77  A    between atoms: _208  and  _210
REMARK   78  A    between atoms: _210  and  _211
REMARK   79  A    between atoms: _210  and  _213
REMARK   80  A    between atoms: _213  and  _214
REMARK   81  A    between atoms: _217  and  _219
REMARK   82  A    between atoms: _219  and  _220
REMARK   83  A    between atoms: _219  and  _222
REMARK   84  A    between atoms: _222  and  _223
REMARK   85  A    between atoms: _229  and  _231
REMARK   86  A    between atoms: _231  and  _232
REMARK   87  A    between atoms: _234  and  _236
REMARK   88  A    between atoms: _236  and  _237
REMARK   89  A    between atoms: _236  and  _239
REMARK   90  A    between atoms: _239  and  _240
REMARK   91  A    between atoms: _240  and  _241
REMARK   92  A    between atoms: _243  and  _245
REMARK   93  A    between atoms: _245  and  _246
REMARK   94  A    between atoms: _245  and  _248
REMARK   95  A    between atoms: _248  and  _249
REMARK   96  A    between atoms: _252  and  _254
REMARK   97  A    between atoms: _254  and  _255
REMARK   98  A    between atoms: _254  and  _257
REMARK   99  A    between atoms: _257  and  _258
REMARK  100  A    between atoms: _258  and  _259
REMARK  101  A    between atoms: _259  and  _260
REMARK  102  A    between atoms: _260  and  _261
REMARK  103  A    between atoms: _265  and  _267
REMARK  104  A    between atoms: _267  and  _268
REMARK  105  A    between atoms: _267  and  _270
REMARK  106  A    between atoms: _275  and  _276
REMARK  107  A    between atoms: _275  and  _278
REMARK  108  A    between atoms: _278  and  _279
REMARK  109  A    between atoms: _281  and  _283
REMARK  110  A    between atoms: _283  and  _284
REMARK  111  A    between atoms: _283  and  _286
REMARK  112  A    between atoms: _289  and  _291
REMARK  113  A    between atoms: _291  and  _292
REMARK  114  A    between atoms: _294  and  _296
REMARK  115  A    between atoms: _296  and  _297
REMARK  116  A    between atoms: _300  and  _302
REMARK  117  A    between atoms: _302  and  _303
REMARK  118  A    between atoms: _302  and  _305
REMARK  119  A    between atoms: _305  and  _306
REMARK  120  A    between atoms: _309  and  _311
REMARK  121  A    between atoms: _311  and  _312
REMARK  122  A    between atoms: _311  and  _314
REMARK  123  A    between atoms: _317  and  _319
REMARK  124  A    between atoms: _319  and  _320
REMARK  125  A    between atoms: _319  and  _322
REMARK  126  A    between atoms: _322  and  _323
REMARK  127  A    between atoms: _326  and  _328
REMARK  128  A    between atoms: _328  and  _329
REMARK  129  A    between atoms: _332  and  _334
REMARK  130  A    between atoms: _334  and  _335
REMARK  131  A    between atoms: _334  and  _337
REMARK  132  A    between atoms: _337  and  _338
REMARK  133  A    between atoms: _338  and  _339
REMARK  134  A    between atoms: _342  and  _344
REMARK  135  A    between atoms: _344  and  _345
REMARK  136  A    between atoms: _344  and  _347
REMARK  137  A    between atoms: _347  and  _348
REMARK  138  A    between atoms: _348  and  _349
REMARK  139  A    between atoms: _352  and  _354
REMARK  140  A    between atoms: _354  and  _355
REMARK  141  A    between atoms: _354  and  _357
REMARK  142  A    between atoms: _357  and  _358
REMARK  143  A    between atoms: _361  and  _363
REMARK  144  A    between atoms: _363  and  _364
REMARK  145  A    between atoms: _363  and  _366
REMARK  146  A    between atoms: _366  and  _367
REMARK  147  A    between atoms: _367  and  _368
REMARK  148  A    between atoms: _368  and  _369
REMARK  149  A    between atoms: _378  and  _380
REMARK  150  A    between atoms: _380  and  _381
REMARK  151  A    between atoms: _380  and  _383
REMARK  152  A    between atoms: _383  and  _384
REMARK  153  A    between atoms: _387  and  _389
REMARK  154  A    between atoms: _389  and  _390
REMARK  155  A    between atoms: _389  and  _392
REMARK  156  A    between atoms: _392  and  _393
REMARK  157  A    between atoms: _396  and  _398
REMARK  158  A    between atoms: _398  and  _399
REMARK  159  A    between atoms: _403  and  _404
REMARK  160  A    between atoms: _409  and  _411
REMARK  161  A    between atoms: _411  and  _412
REMARK  162  A    between atoms: _411  and  _414
REMARK  163  A    between atoms: _414  and  _415
REMARK  164  A    between atoms: _420  and  _422
REMARK  165  A    between atoms: _422  and  _423
REMARK  166  A    between atoms: _422  and  _425
REMARK  167  A    between atoms: _425  and  _426
REMARK  168  A    between atoms: _433  and  _434
REMARK  169  A    between atoms: _439  and  _441
REMARK  170  A    between atoms: _441  and  _442
REMARK  171  A    between atoms: _441  and  _444
REMARK  172  A    between atoms: _444  and  _445
REMARK  173  A    between atoms: _448  and  _450
REMARK  174  A    between atoms: _450  and  _451
REMARK  175  A    between atoms: _450  and  _453
REMARK  176  A    between atoms: _453  and  _454
REMARK  177  A    between atoms: _457  and  _459
REMARK  178  A    between atoms: _459  and  _460
REMARK  179  A    between atoms: _459  and  _462
REMARK  180  A    between atoms: _462  and  _463
REMARK  181  A    between atoms: _463  and  _464
REMARK  182  A    between atoms: _468  and  _469
REMARK  183  A    between atoms: _468  and  _471
REMARK  184  A    between atoms: _471  and  _472
REMARK  185  A    between atoms: _472  and  _473
REMARK  186  A    between atoms: _478  and  _480
REMARK  187  A    between atoms: _480  and  _481
REMARK  188  A    between atoms: _480  and  _483
REMARK  189  A    between atoms: _483  and  _484
REMARK  190  A    between atoms: _484  and  _485
REMARK  191  A    between atoms: _488  and  _490
REMARK  192  A    between atoms: _490  and  _491
REMARK  193  A    between atoms: _490  and  _493
REMARK  194  A    between atoms: _493  and  _494
REMARK  195  A    between atoms: _497  and  _499
REMARK  196  A    between atoms: _499  and  _500
REMARK  197  A    between atoms: _499  and  _502
REMARK  198  A    between atoms: _502  and  _503
REMARK  199  A    between atoms: _506  and  _508
REMARK  200  A    between atoms: _508  and  _509
REMARK  201  A    between atoms: _508  and  _511
REMARK  202  A    between atoms: _511  and  _512
REMARK  203  A    between atoms: _520  and  _521
REMARK  204  A    between atoms: _520  and  _523
REMARK  205  A    between atoms: _523  and  _524
REMARK  206  A    between atoms: _524  and  _525
REMARK  207  A    between atoms: _528  and  _530
REMARK  208  A    between atoms: _530  and  _531
REMARK  209  A    between atoms: _530  and  _533
REMARK  210  A    between atoms: _533  and  _534
REMARK  211  A    between atoms: _539  and  _541
REMARK  212  A    between atoms: _541  and  _542
REMARK  213  A    between atoms: _541  and  _544
REMARK  214  A    between atoms: _544  and  _545
REMARK  215  A    between atoms: _545  and  _546
REMARK  216  A    between atoms: _546  and  _547
REMARK  217  A    between atoms: _556  and  _558
REMARK  218  A    between atoms: _558  and  _559
REMARK  219  A    between atoms: _558  and  _561
REMARK  220  A    between atoms: _561  and  _562
REMARK  221  A    between atoms: _565  and  _567
REMARK  222  A    between atoms: _567  and  _568
REMARK  223  A    between atoms: _567  and  _570
REMARK  224  A    between atoms: _570  and  _571
REMARK  225  A    between atoms: _574  and  _576
REMARK  226  A    between atoms: _576  and  _577
REMARK  227  A    between atoms: _576  and  _579
REMARK  228  A    between atoms: _579  and  _580
REMARK  229  A    between atoms: _580  and  _581
REMARK  230  A    between atoms: _581  and  _582
REMARK  231  A    between atoms: _591  and  _593
REMARK  232  A    between atoms: _593  and  _594
REMARK  233  A    between atoms: _593  and  _596
REMARK  234  A    between atoms: _596  and  _597
REMARK  235  A    between atoms: _597  and  _598
REMARK  236  A    between atoms: _598  and  _599
REMARK  237  A    between atoms: _608  and  _610
REMARK  238  A    between atoms: _610  and  _611
REMARK  239  A    between atoms: _610  and  _613
REMARK  240  A    between atoms: _613  and  _614
REMARK  241  A    between atoms: _614  and  _615
REMARK  242  A    between atoms: _615  and  _616
REMARK  243  A    between atoms: _625  and  _627
REMARK  244  A    between atoms: _627  and  _628
REMARK  245  A    between atoms: _627  and  _630
REMARK  246  A    between atoms: _630  and  _631
REMARK  247  A    between atoms: _634  and  _636
REMARK  248  A    between atoms: _636  and  _637
REMARK  249  A    between atoms: _636  and  _639
REMARK  250  A    between atoms: _639  and  _640
REMARK  251  A    between atoms: _640  and  _641
REMARK                            x       y       z     vdW  Elec       q    Type
REMARK                         _______ _______ _______ _____ _____    ______ ____
ROOT
ATOM      1  C   GLU A   1     -49.204   2.825  10.113  0.00  0.00    +0.238 C 
ATOM      2  O   GLU A   1     -49.606   1.879  10.805  0.00  0.00    -0.274 OA
ATOM      3  N   ILE A   2     -49.153   4.091  10.540  0.00  0.00    -0.298 N 
ATOM      4  H   ILE A   2     -48.776   4.821   9.903  0.00  0.00    +0.150 HD
ENDROOT
BRANCH   1   5
ATOM      5  CA  GLU A   1     -48.693   2.579   8.698  0.00  0.00    +0.145 C 
BRANCH   5   6
ATOM      6  N   GLU A   1     -48.788   3.768   7.857  0.00  0.00    -0.238 NA
ATOM      7  H   GLU A   1     -47.913   4.224   7.528  0.00  0.00    +0.142 HD
ENDBRANCH   5   6
BRANCH   5   8
ATOM      8  CB  GLU A   1     -47.315   1.928   8.692  0.00  0.00    +0.038 C 
BRANCH   8   9
ATOM      9  CG  GLU A   1     -46.792   1.517   7.327  0.00  0.00    +0.116 C 
BRANCH   9  10
ATOM     10  CD  GLU A   1     -46.615   2.693   6.365  0.00  0.00    +0.365 C 
ATOM     11  OE2 GLU A   1     -46.097   3.769   6.781  0.00  0.00    -0.246 OA
ATOM     12  OE1 GLU A   1     -46.991   2.522   5.179  0.00  0.00    -0.246 OA
ENDBRANCH   9  10
ENDBRANCH   8   9
ENDBRANCH   5   8
ENDBRANCH   1   5
BRANCH   3  13
ATOM     13  CA  ILE A   2     -49.608   4.482  11.868  0.00  0.00    +0.137 C 
BRANCH  13  14
ATOM     14  CB  ILE A   2     -49.182   5.938  12.210  0.00  0.00    +0.026 C 
ATOM     15  CG2 ILE A   2     -49.833   6.391  13.535  0.00  0.00    +0.002 C 
BRANCH  14  16
ATOM     16  CG1 ILE A   2     -47.650   6.040  12.279  0.00  0.00    +0.002 C 
ATOM     17  CD1 ILE A   2     -46.997   5.327  13.459  0.00  0.00    +0.000 C 
ENDBRANCH  14  16
ENDBRANCH  13  14
BRANCH  13  18
ATOM     18  C   ILE A   2     -51.132   4.399  11.840  0.00  0.00    +0.227 C 
ATOM     19  O   ILE A   2     -51.770   3.954  12.801  0.00  0.00    -0.286 OA
ENDBRANCH  13  18
ENDBRANCH   3  13
TORSDOF 9
REMARK  Name = ../refined-set-2016/3v4t/3v4t_pocket.pdb
REMARK  251 active torsions:
REMARK  status: ('A' for Active; 'I' for Inactive)
REMARK    1  A    between atoms: _1  and  _3
REMARK    2  A    between atoms: _3  and  _4
REMARK    3  A    between atoms: _3  and  _6
REMARK    4  A    between atoms: _6  and  _7
REMARK    5  A    between atoms: _7  and  _8
REMARK    6  A    between atoms: _8  and  _9
REMARK    7  A    between atoms: _9  and  _10
REMARK    8  A    between atoms: _16  and  _17
REMARK    9  A    between atoms: _16  and  _19
REMARK   10  A    between atoms: _19  and  _20
REMARK   11  A    between atoms: _25  and  _27
REMARK   12  A    between atoms: _27  and  _28
REMARK   13  A    between atoms: _31  and  _33
REMARK   14  A    between atoms: _33  and  _34
REMARK   15  A    between atoms: _37  and  _39
REMARK   16  A    between atoms: _39  and  _40
REMARK   17  A    between atoms: _39  and  _42
REMARK   18  A    between atoms: _42  and  _43
REMARK   19  A    between atoms: _47  and  _48
REMARK   20  A    between atoms: _53  and  _55
REMARK   21  A    between atoms: _55  and  _56
REMARK   22  A    between atoms: _55  and  _58
REMARK   23  A    between atoms: _58  and  _59
REMARK   24  A    between atoms: _62  and  _64
REMARK   25  A    between atoms: _64  and  _65
REMARK   26  A    between atoms: _64  and  _67
REMARK   27  A    between atoms: _67  and  _68
REMARK   28  A    between atoms: _68  and  _69
REMARK   29  A    between atoms: _73  and  _74
REMARK   30  A    between atoms: _73  and  _76
REMARK   31  A    between atoms: _76  and  _77
REMARK   32  A    between atoms: _77  and  _78
REMARK   33  A    between atoms: _78  and  _79
REMARK   34  A    between atoms: _88  and  _90
REMARK   35  A    between atoms: _90  and  _91
REMARK   36  A    between atoms: _94  and  _96
REMARK   37  A    between atoms: _96  and  _97
REMARK   38  A    between atoms: _96  and  _99
REMARK   39  A    between atoms: _99  and  _100
REMARK   40  A    between atoms: _102  and  _104
REMARK   41  A    between atoms: _104  and  _105
REMARK   42  A    between atoms: _104  and  _107
REMARK   43  A    between atoms: _107  and  _108
REMARK   44  A    between atoms: _113  and  _114
REMARK   45  A    between atoms: _113  and  _116
REMARK   46  A    between atoms: _116  and  _117
REMARK   47  A    between atoms: _127  and  _129
REMARK   48  A    between atoms: _129  and  _130
REMARK   49  A    between atoms: _129  and  _132
REMARK   50  A    between atoms: _132  and  _133
REMARK   51  A    between atoms: _136  and  _138
REMARK   52  A    between atoms: _138  and  _139
REMARK   53  A    between atoms: _141  and  _143
REMARK   54  A    between atoms: _143  and  _144
REMARK   55  A    between atoms: _147  and  _149
REMARK   56  A    between atoms: _149  and  _150
REMARK   57  A    between atoms: _149  and  _152
REMARK   58  A    between atoms: _152  and  _153
REMARK   59  A    between atoms: _153  and  _154
REMARK   60  A    between atoms: _154  and  _155
REMARK   61  A    between atoms: _165  and  _166
REMARK   62  A    between atoms: _171  and  _173
REMARK   63  A    between atoms: _173  and  _174
REMARK   64  A    between atoms: _173  and  _176
REMARK   65  A    between atoms: _179  and  _181
REMARK   66  A    between atoms: _181  and  _182
REMARK   67  A    between atoms: _181  and  _184
REMARK   68  A    between atoms: _184  and  _185
REMARK   69  A    between atoms: _188  and  _190
REMARK   70  A    between atoms: _190  and  _191
REMARK   71  A    between atoms: _190  and  _193
REMARK   72  A    between atoms: _193  and  _194
REMARK   73  A    between atoms: _197  and  _199
REMARK   74  A    between atoms: _199  and  _200
REMARK   75  A    between atoms: _199  and  _202
REMARK   76  A    between atoms: _202  and  _203
REMARK   77  A    between atoms: _208  and  _210
REMARK   78  A    between atoms: _210  and  _211
REMARK   79  A    between atoms: _210  and  _213
REMARK   80  A    between atoms: _213  and  _214
REMARK   81  A    between atoms: _217  and  _219
REMARK   82  A    between atoms: _219  and  _220
REMARK   83  A    between atoms: _219  and  _222
REMARK   84  A    between atoms: _222  and  _223
REMARK   85  A    between atoms: _229  and  _231
REMARK   86  A    between atoms: _231  and  _232
REMARK   87  A    between atoms: _234  and  _236
REMARK   88  A    between atoms: _236  and  _237
REMARK   89  A    between atoms: _236  and  _239
REMARK   90  A    between atoms: _239  and  _240
REMARK   91  A    between atoms: _240  and  _241
REMARK   92  A    between atoms: _243  and  _245
REMARK   93  A    between atoms: _245  and  _246
REMARK   94  A    between atoms: _245  and  _248
REMARK   95  A    between atoms: _248  and  _249
REMARK   96  A    between atoms: _252  and  _254
REMARK   97  A    between atoms: _254  and  _255
REMARK   98  A    between atoms: _254  and  _257
REMARK   99  A    between atoms: _257  and  _258
REMARK  100  A    between atoms: _258  and  _259
REMARK  101  A    between atoms: _259  and  _260
REMARK  102  A    between atoms: _260  and  _261
REMARK  103  A    between atoms: _265  and  _267
REMARK  104  A    between atoms: _267  and  _268
REMARK  105  A    between atoms: _267  and  _270
REMARK  106  A    between atoms: _275  and  _276
REMARK  107  A    between atoms: _275  and  _278
REMARK  108  A    between atoms: _278  and  _279
REMARK  109  A    between atoms: _281  and  _283
REMARK  110  A    between atoms: _283  and  _284
REMARK  111  A    between atoms: _283  and  _286
REMARK  112  A    between atoms: _289  and  _291
REMARK  113  A    between atoms: _291  and  _292
REMARK  114  A    between atoms: _294  and  _296
REMARK  115  A    between atoms: _296  and  _297
REMARK  116  A    between atoms: _300  and  _302
REMARK  117  A    between atoms: _302  and  _303
REMARK  118  A    between atoms: _302  and  _305
REMARK  119  A    between atoms: _305  and  _306
REMARK  120  A    between atoms: _309  and  _311
REMARK  121  A    between atoms: _311  and  _312
REMARK  122  A    between atoms: _311  and  _314
REMARK  123  A    between atoms: _317  and  _319
REMARK  124  A    between atoms: _319  and  _320
REMARK  125  A    between atoms: _319  and  _322
REMARK  126  A    between atoms: _322  and  _323
REMARK  127  A    between atoms: _326  and  _328
REMARK  128  A    between atoms: _328  and  _329
REMARK  129  A    between atoms: _332  and  _334
REMARK  130  A    between atoms: _334  and  _335
REMARK  131  A    between atoms: _334  and  _337
REMARK  132  A    between atoms: _337  and  _338
REMARK  133  A    between atoms: _338  and  _339
REMARK  134  A    between atoms: _342  and  _344
REMARK  135  A    between atoms: _344  and  _345
REMARK  136  A    between atoms: _344  and  _347
REMARK  137  A    between atoms: _347  and  _348
REMARK  138  A    between atoms: _348  and  _349
REMARK  139  A    between atoms: _352  and  _354
REMARK  140  A    between atoms: _354  and  _355
REMARK  141  A    between atoms: _354  and  _357
REMARK  142  A    between atoms: _357  and  _358
REMARK  143  A    between atoms: _361  and  _363
REMARK  144  A    between atoms: _363  and  _364
REMARK  145  A    between atoms: _363  and  _366
REMARK  146  A    between atoms: _366  and  _367
REMARK  147  A    between atoms: _367  and  _368
REMARK  148  A    between atoms: _368  and  _369
REMARK  149  A    between atoms: _378  and  _380
REMARK  150  A    between atoms: _380  and  _381
REMARK  151  A    between atoms: _380  and  _383
REMARK  152  A    between atoms: _383  and  _384
REMARK  153  A    between atoms: _387  and  _389
REMARK  154  A    between atoms: _389  and  _390
REMARK  155  A    between atoms: _389  and  _392
REMARK  156  A    between atoms: _392  and  _393
REMARK  157  A    between atoms: _396  and  _398
REMARK  158  A    between atoms: _398  and  _399
REMARK  159  A    between atoms: _403  and  _404
REMARK  160  A    between atoms: _409  and  _411
REMARK  161  A    between atoms: _411  and  _412
REMARK  162  A    between atoms: _411  and  _414
REMARK  163  A    between atoms: _414  and  _415
REMARK  164  A    between atoms: _420  and  _422
REMARK  165  A    between atoms: _422  and  _423
REMARK  166  A    between atoms: _422  and  _425
REMARK  167  A    between atoms: _425  and  _426
REMARK  168  A    between atoms: _433  and  _434
REMARK  169  A    between atoms: _439  and  _441
REMARK  170  A    between atoms: _441  and  _442
REMARK  171  A    between atoms: _441  and  _444
REMARK  172  A    between atoms: _444  and  _445
REMARK  173  A    between atoms: _448  and  _450
REMARK  174  A    between atoms: _450  and  _451
REMARK  175  A    between atoms: _450  and  _453
REMARK  176  A    between atoms: _453  and  _454
REMARK  177  A    between atoms: _457  and  _459
REMARK  178  A    between atoms: _459  and  _460
REMARK  179  A    between atoms: _459  and  _462
REMARK  180  A    between atoms: _462  and  _463
REMARK  181  A    between atoms: _463  and  _464
REMARK  182  A    between atoms: _468  and  _469
REMARK  183  A    between atoms: _468  and  _471
REMARK  184  A    between atoms: _471  and  _472
REMARK  185  A    between atoms: _472  and  _473
REMARK  186  A    between atoms: _478  and  _480
REMARK  187  A    between atoms: _480  and  _481
REMARK  188  A    between atoms: _480  and  _483
REMARK  189  A    between atoms: _483  and  _484
REMARK  190  A    between atoms: _484  and  _485
REMARK  191  A    between atoms: _488  and  _490
REMARK  192  A    between atoms: _490  and  _491
REMARK  193  A    between atoms: _490  and  _493
REMARK  194  A    between atoms: _493  and  _494
REMARK  195  A    between atoms: _497  and  _499
REMARK  196  A    between atoms: _499  and  _500
REMARK  197  A    between atoms: _499  and  _502
REMARK  198  A    between atoms: _502  and  _503
REMARK  199  A    between atoms: _506  and  _508
REMARK  200  A    between atoms: _508  and  _509
REMARK  201  A    between atoms: _508  and  _511
REMARK  202  A    between atoms: _511  and  _512
REMARK  203  A    between atoms: _520  and  _521
REMARK  204  A    between atoms: _520  and  _523
REMARK  205  A    between atoms: _523  and  _524
REMARK  206  A    between atoms: _524  and  _525
REMARK  207  A    between atoms: _528  and  _530
REMARK  208  A    between atoms: _530  and  _531
REMARK  209  A    between atoms: _530  and  _533
REMARK  210  A    between atoms: _533  and  _534
REMARK  211  A    between atoms: _539  and  _541
REMARK  212  A    between atoms: _541  and  _542
REMARK  213  A    between atoms: _541  and  _544
REMARK  214  A    between atoms: _544  and  _545
REMARK  215  A    between atoms: _545  and  _546
REMARK  216  A    between atoms: _546  and  _547
REMARK  217  A    between atoms: _556  and  _558
REMARK  218  A    between atoms: _558  and  _559
REMARK  219  A    between atoms: _558  and  _561
REMARK  220  A    between atoms: _561  and  _562
REMARK  221  A    between atoms: _565  and  _567
REMARK  222  A    between atoms: _567  and  _568
REMARK  223  A    between atoms: _567  and  _570
REMARK  224  A    between atoms: _570  and  _571
REMARK  225  A    between atoms: _574  and  _576
REMARK  226  A    between atoms: _576  and  _577
REMARK  227  A    between atoms: _576  and  _579
REMARK  228  A    between atoms: _579  and  _580
REMARK  229  A    between atoms: _580  and  _581
REMARK  230  A    between atoms: _581  and  _582
REMARK  231  A    between atoms: _591  and  _593
REMARK  232  A    between atoms: _593  and  _594
REMARK  233  A    between atoms: _593  and  _596
REMARK  234  A    between atoms: _596  and  _597
REMARK  235  A    between atoms: _597  and  _598
REMARK  236  A    between atoms: _598  and  _599
REMARK  237  A    between atoms: _608  and  _610
REMARK  238  A    between atoms: _610  and  _611
REMARK  239  A    between atoms: _610  and  _613
REMARK  240  A    between atoms: _613  and  _614
REMARK  241  A    between atoms: _614  and  _615
REMARK  242  A    between atoms: _615  and  _616
REMARK  243  A    between atoms: _625  and  _627
REMARK  244  A    between atoms: _627  and  _628
REMARK  245  A    between atoms: _627  and  _630
REMARK  246  A    between atoms: _630  and  _631
REMARK  247  A    between atoms: _634  and  _636
REMARK  248  A    between atoms: _636  and  _637
REMARK  249  A    between atoms: _636  and  _639
REMARK  250  A    between atoms: _639  and  _640
REMARK  251  A    between atoms: _640  and  _641
REMARK                            x       y       z     vdW  Elec       q    Type
REMARK                         _______ _______ _______ _____ _____    ______ ____
ROOT
ATOM      1  CA  ARG A   1     -45.798   2.374  -0.576  0.00  0.00    +0.145 C 
ENDROOT
BRANCH   1   2
ATOM      2  C   ARG A   1     -44.366   2.458  -1.122  0.00  0.00    +0.238 C 
ATOM      3  N   ILE A   2     -43.410   1.928  -0.363  0.00  0.00    -0.298 N 
ATOM      4  H   ILE A   2     -43.668   1.483   0.541  0.00  0.00    +0.150 HD
ATOM      5  O   ARG A   1     -44.137   3.004  -2.196  0.00  0.00    -0.274 OA
BRANCH   3   6
ATOM      6  CA  ILE A   2     -42.018   1.956  -0.767  0.00  0.00    +0.137 C 
BRANCH   6   7
ATOM      7  CB  ILE A   2     -41.088   1.574   0.432  0.00  0.00    +0.026 C 
ATOM      8  CG2 ILE A   2     -39.600   1.829   0.053  0.00  0.00    +0.002 C 
BRANCH   7   9
ATOM      9  CG1 ILE A   2     -41.475   2.379   1.700  0.00  0.00    +0.002 C 
ATOM     10  CD1 ILE A   2     -41.402   3.913   1.551  0.00  0.00    +0.000 C 
ENDBRANCH   7   9
ENDBRANCH   6   7
BRANCH   6  11
ATOM     11  C   ILE A   2     -41.817   0.983  -1.945  0.00  0.00    +0.227 C 
ATOM     12  O   ILE A   2     -41.076   1.270  -2.908  0.00  0.00    -0.286 OA
ENDBRANCH   6  11
ENDBRANCH   3   6
ENDBRANCH   1   2
BRANCH   1  13
ATOM     13  N   ARG A   1     -46.154   1.135   0.146  0.00  0.00    -0.238 NA
ATOM     14  H   ARG A   1     -46.436   1.194   1.145  0.00  0.00    +0.142 HD
ENDBRANCH   1  13
BRANCH   1  15
ATOM     15  CB  ARG A   1     -46.229   3.656   0.130  0.00  0.00    +0.030 C 
BRANCH  15  16
ATOM     16  CG  ARG A   1     -45.422   3.913   1.407  0.00  0.00    +0.045 C 
BRANCH  16  17
ATOM     17  CD  ARG A   1     -46.106   4.925   2.309  0.00  0.00    +0.174 C 
BRANCH  17  18
ATOM     18  NE  ARG A   1     -45.557   4.880   3.653  0.00  0.00    -0.265 N 
ATOM     19  HE  ARG A   1     -45.921   4.146   4.294  0.00  0.00    +0.259 HD
ATOM     20  CZ  ARG A   1     -44.627   5.702   4.130  0.00  0.00    +0.342 C 
ATOM     21  NH2 ARG A   1     -44.171   5.524   5.361  0.00  0.00    -0.292 N 
ATOM     22 HH21 ARG A   1     -44.540   4.747   5.945  0.00  0.00    +0.255 HD
ATOM     23 HH22 ARG A   1     -43.444   6.161   5.743  0.00  0.00    +0.255 HD
ATOM     24  NH1 ARG A   1     -44.126   6.671   3.376  0.00  0.00    -0.292 N 
ATOM     25 HH11 ARG A   1     -43.399   7.307   3.762  0.00  0.00    +0.255 HD
ATOM     26 HH12 ARG A   1     -44.460   6.795   2.399  0.00  0.00    +0.255 HD
ENDBRANCH  17  18
ENDBRANCH  16  17
ENDBRANCH  15  16
ENDBRANCH   1  15
TORSDOF 10
REMARK  Name = ../refined-set-2016/3v4t/3v4t_pocket.pdb
REMARK  251 active torsions:
REMARK  status: ('A' for Active; 'I' for Inactive)
REMARK    1  A    between atoms: _1  and  _3
REMARK    2  A    between atoms: _3  and  _4
REMARK    3  A    between atoms: _3  and  _6
REMARK    4  A    between atoms: _6  and  _7
REMARK    5  A    between atoms: _7  and  _8
REMARK    6  A    between atoms: _8  and  _9
REMARK    7  A    between atoms: _9  and  _10
REMARK    8  A    between atoms: _16  and  _17
REMARK    9  A    between atoms: _16  and  _19
REMARK   10  A    between atoms: _19  and  _20
REMARK   11  A    between atoms: _25  and  _27
REMARK   12  A    between atoms: _27  and  _28
REMARK   13  A    between atoms: _31  and  _33
REMARK   14  A    between atoms: _33  and  _34
REMARK   15  A    between atoms: _37  and  _39
REMARK   16  A    between atoms: _39  and  _40
REMARK   17  A    between atoms: _39  and  _42
REMARK   18  A    between atoms: _42  and  _43
REMARK   19  A    between atoms: _47  and  _48
REMARK   20  A    between atoms: _53  and  _55
REMARK   21  A    between atoms: _55  and  _56
REMARK   22  A    between atoms: _55  and  _58
REMARK   23  A    between atoms: _58  and  _59
REMARK   24  A    between atoms: _62  and  _64
REMARK   25  A    between atoms: _64  and  _65
REMARK   26  A    between atoms: _64  and  _67
REMARK   27  A    between atoms: _67  and  _68
REMARK   28  A    between atoms: _68  and  _69
REMARK   29  A    between atoms: _73  and  _74
REMARK   30  A    between atoms: _73  and  _76
REMARK   31  A    between atoms: _76  and  _77
REMARK   32  A    between atoms: _77  and  _78
REMARK   33  A    between atoms: _78  and  _79
REMARK   34  A    between atoms: _88  and  _90
REMARK   35  A    between atoms: _90  and  _91
REMARK   36  A    between atoms: _94  and  _96
REMARK   37  A    between atoms: _96  and  _97
REMARK   38  A    between atoms: _96  and  _99
REMARK   39  A    between atoms: _99  and  _100
REMARK   40  A    between atoms: _102  and  _104
REMARK   41  A    between atoms: _104  and  _105
REMARK   42  A    between atoms: _104  and  _107
REMARK   43  A    between atoms: _107  and  _108
REMARK   44  A    between atoms: _113  and  _114
REMARK   45  A    between atoms: _113  and  _116
REMARK   46  A    between atoms: _116  and  _117
REMARK   47  A    between atoms: _127  and  _129
REMARK   48  A    between atoms: _129  and  _130
REMARK   49  A    between atoms: _129  and  _132
REMARK   50  A    between atoms: _132  and  _133
REMARK   51  A    between atoms: _136  and  _138
REMARK   52  A    between atoms: _138  and  _139
REMARK   53  A    between atoms: _141  and  _143
REMARK   54  A    between atoms: _143  and  _144
REMARK   55  A    between atoms: _147  and  _149
REMARK   56  A    between atoms: _149  and  _150
REMARK   57  A    between atoms: _149  and  _152
REMARK   58  A    between atoms: _152  and  _153
REMARK   59  A    between atoms: _153  and  _154
REMARK   60  A    between atoms: _154  and  _155
REMARK   61  A    between atoms: _165  and  _166
REMARK   62  A    between atoms: _171  and  _173
REMARK   63  A    between atoms: _173  and  _174
REMARK   64  A    between atoms: _173  and  _176
REMARK   65  A    between atoms: _179  and  _181
REMARK   66  A    between atoms: _181  and  _182
REMARK   67  A    between atoms: _181  and  _184
REMARK   68  A    between atoms: _184  and  _185
REMARK   69  A    between atoms: _188  and  _190
REMARK   70  A    between atoms: _190  and  _191
REMARK   71  A    between atoms: _190  and  _193
REMARK   72  A    between atoms: _193  and  _194
REMARK   73  A    between atoms: _197  and  _199
REMARK   74  A    between atoms: _199  and  _200
REMARK   75  A    between atoms: _199  and  _202
REMARK   76  A    between atoms: _202  and  _203
REMARK   77  A    between atoms: _208  and  _210
REMARK   78  A    between atoms: _210  and  _211
REMARK   79  A    between atoms: _210  and  _213
REMARK   80  A    between atoms: _213  and  _214
REMARK   81  A    between atoms: _217  and  _219
REMARK   82  A    between atoms: _219  and  _220
REMARK   83  A    between atoms: _219  and  _222
REMARK   84  A    between atoms: _222  and  _223
REMARK   85  A    between atoms: _229  and  _231
REMARK   86  A    between atoms: _231  and  _232
REMARK   87  A    between atoms: _234  and  _236
REMARK   88  A    between atoms: _236  and  _237
REMARK   89  A    between atoms: _236  and  _239
REMARK   90  A    between atoms: _239  and  _240
REMARK   91  A    between atoms: _240  and  _241
REMARK   92  A    between atoms: _243  and  _245
REMARK   93  A    between atoms: _245  and  _246
REMARK   94  A    between atoms: _245  and  _248
REMARK   95  A    between atoms: _248  and  _249
REMARK   96  A    between atoms: _252  and  _254
REMARK   97  A    between atoms: _254  and  _255
REMARK   98  A    between atoms: _254  and  _257
REMARK   99  A    between atoms: _257  and  _258
REMARK  100  A    between atoms: _258  and  _259
REMARK  101  A    between atoms: _259  and  _260
REMARK  102  A    between atoms: _260  and  _261
REMARK  103  A    between atoms: _265  and  _267
REMARK  104  A    between atoms: _267  and  _268
REMARK  105  A    between atoms: _267  and  _270
REMARK  106  A    between atoms: _275  and  _276
REMARK  107  A    between atoms: _275  and  _278
REMARK  108  A    between atoms: _278  and  _279
REMARK  109  A    between atoms: _281  and  _283
REMARK  110  A    between atoms: _283  and  _284
REMARK  111  A    between atoms: _283  and  _286
REMARK  112  A    between atoms: _289  and  _291
REMARK  113  A    between atoms: _291  and  _292
REMARK  114  A    between atoms: _294  and  _296
REMARK  115  A    between atoms: _296  and  _297
REMARK  116  A    between atoms: _300  and  _302
REMARK  117  A    between atoms: _302  and  _303
REMARK  118  A    between atoms: _302  and  _305
REMARK  119  A    between atoms: _305  and  _306
REMARK  120  A    between atoms: _309  and  _311
REMARK  121  A    between atoms: _311  and  _312
REMARK  122  A    between atoms: _311  and  _314
REMARK  123  A    between atoms: _317  and  _319
REMARK  124  A    between atoms: _319  and  _320
REMARK  125  A    between atoms: _319  and  _322
REMARK  126  A    between atoms: _322  and  _323
REMARK  127  A    between atoms: _326  and  _328
REMARK  128  A    between atoms: _328  and  _329
REMARK  129  A    between atoms: _332  and  _334
REMARK  130  A    between atoms: _334  and  _335
REMARK  131  A    between atoms: _334  and  _337
REMARK  132  A    between atoms: _337  and  _338
REMARK  133  A    between atoms: _338  and  _339
REMARK  134  A    between atoms: _342  and  _344
REMARK  135  A    between atoms: _344  and  _345
REMARK  136  A    between atoms: _344  and  _347
REMARK  137  A    between atoms: _347  and  _348
REMARK  138  A    between atoms: _348  and  _349
REMARK  139  A    between atoms: _352  and  _354
REMARK  140  A    between atoms: _354  and  _355
REMARK  141  A    between atoms: _354  and  _357
REMARK  142  A    between atoms: _357  and  _358
REMARK  143  A    between atoms: _361  and  _363
REMARK  144  A    between atoms: _363  and  _364
REMARK  145  A    between atoms: _363  and  _366
REMARK  146  A    between atoms: _366  and  _367
REMARK  147  A    between atoms: _367  and  _368
REMARK  148  A    between atoms: _368  and  _369
REMARK  149  A    between atoms: _378  and  _380
REMARK  150  A    between atoms: _380  and  _381
REMARK  151  A    between atoms: _380  and  _383
REMARK  152  A    between atoms: _383  and  _384
REMARK  153  A    between atoms: _387  and  _389
REMARK  154  A    between atoms: _389  and  _390
REMARK  155  A    between atoms: _389  and  _392
REMARK  156  A    between atoms: _392  and  _393
REMARK  157  A    between atoms: _396  and  _398
REMARK  158  A    between atoms: _398  and  _399
REMARK  159  A    between atoms: _403  and  _404
REMARK  160  A    between atoms: _409  and  _411
REMARK  161  A    between atoms: _411  and  _412
REMARK  162  A    between atoms: _411  and  _414
REMARK  163  A    between atoms: _414  and  _415
REMARK  164  A    between atoms: _420  and  _422
REMARK  165  A    between atoms: _422  and  _423
REMARK  166  A    between atoms: _422  and  _425
REMARK  167  A    between atoms: _425  and  _426
REMARK  168  A    between atoms: _433  and  _434
REMARK  169  A    between atoms: _439  and  _441
REMARK  170  A    between atoms: _441  and  _442
REMARK  171  A    between atoms: _441  and  _444
REMARK  172  A    between atoms: _444  and  _445
REMARK  173  A    between atoms: _448  and  _450
REMARK  174  A    between atoms: _450  and  _451
REMARK  175  A    between atoms: _450  and  _453
REMARK  176  A    between atoms: _453  and  _454
REMARK  177  A    between atoms: _457  and  _459
REMARK  178  A    between atoms: _459  and  _460
REMARK  179  A    between atoms: _459  and  _462
REMARK  180  A    between atoms: _462  and  _463
REMARK  181  A    between atoms: _463  and  _464
REMARK  182  A    between atoms: _468  and  _469
REMARK  183  A    between atoms: _468  and  _471
REMARK  184  A    between atoms: _471  and  _472
REMARK  185  A    between atoms: _472  and  _473
REMARK  186  A    between atoms: _478  and  _480
REMARK  187  A    between atoms: _480  and  _481
REMARK  188  A    between atoms: _480  and  _483
REMARK  189  A    between atoms: _483  and  _484
REMARK  190  A    between atoms: _484  and  _485
REMARK  191  A    between atoms: _488  and  _490
REMARK  192  A    between atoms: _490  and  _491
REMARK  193  A    between atoms: _490  and  _493
REMARK  194  A    between atoms: _493  and  _494
REMARK  195  A    between atoms: _497  and  _499
REMARK  196  A    between atoms: _499  and  _500
REMARK  197  A    between atoms: _499  and  _502
REMARK  198  A    between atoms: _502  and  _503
REMARK  199  A    between atoms: _506  and  _508
REMARK  200  A    between atoms: _508  and  _509
REMARK  201  A    between atoms: _508  and  _511
REMARK  202  A    between atoms: _511  and  _512
REMARK  203  A    between atoms: _520  and  _521
REMARK  204  A    between atoms: _520  and  _523
REMARK  205  A    between atoms: _523  and  _524
REMARK  206  A    between atoms: _524  and  _525
REMARK  207  A    between atoms: _528  and  _530
REMARK  208  A    between atoms: _530  and  _531
REMARK  209  A    between atoms: _530  and  _533
REMARK  210  A    between atoms: _533  and  _534
REMARK  211  A    between atoms: _539  and  _541
REMARK  212  A    between atoms: _541  and  _542
REMARK  213  A    between atoms: _541  and  _544
REMARK  214  A    between atoms: _544  and  _545
REMARK  215  A    between atoms: _545  and  _546
REMARK  216  A    between atoms: _546  and  _547
REMARK  217  A    between atoms: _556  and  _558
REMARK  218  A    between atoms: _558  and  _559
REMARK  219  A    between atoms: _558  and  _561
REMARK  220  A    between atoms: _561  and  _562
REMARK  221  A    between atoms: _565  and  _567
REMARK  222  A    between atoms: _567  and  _568
REMARK  223  A    between atoms: _567  and  _570
REMARK  224  A    between atoms: _570  and  _571
REMARK  225  A    between atoms: _574  and  _576
REMARK  226  A    between atoms: _576  and  _577
REMARK  227  A    between atoms: _576  and  _579
REMARK  228  A    between atoms: _579  and  _580
REMARK  229  A    between atoms: _580  and  _581
REMARK  230  A    between atoms: _581  and  _582
REMARK  231  A    between atoms: _591  and  _593
REMARK  232  A    between atoms: _593  and  _594
REMARK  233  A    between atoms: _593  and  _596
REMARK  234  A    between atoms: _596  and  _597
REMARK  235  A    between atoms: _597  and  _598
REMARK  236  A    between atoms: _598  and  _599
REMARK  237  A    between atoms: _608  and  _610
REMARK  238  A    between atoms: _610  and  _611
REMARK  239  A    between atoms: _610  and  _613
REMARK  240  A    between atoms: _613  and  _614
REMARK  241  A    between atoms: _614  and  _615
REMARK  242  A    between atoms: _615  and  _616
REMARK  243  A    between atoms: _625  and  _627
REMARK  244  A    between atoms: _627  and  _628
REMARK  245  A    between atoms: _627  and  _630
REMARK  246  A    between atoms: _630  and  _631
REMARK  247  A    between atoms: _634  and  _636
REMARK  248  A    between atoms: _636  and  _637
REMARK  249  A    between atoms: _636  and  _639
REMARK  250  A    between atoms: _639  and  _640
REMARK  251  A    between atoms: _640  and  _641
REMARK                            x       y       z     vdW  Elec       q    Type
REMARK                         _______ _______ _______ _____ _____    ______ ____
ROOT
ATOM      1  C   ALA A   2     -39.984  13.404   6.626  0.00  0.00    +0.244 C 
ATOM      2  N   PRO A   3     -40.678  13.629   7.755  0.00  0.00    -0.272 N 
ATOM      3  CD  PRO A   3     -40.319  14.480   8.902  0.00  0.00    +0.094 C 
ATOM      4  CG  PRO A   3     -40.864  13.684  10.068  0.00  0.00    +0.024 C 
ATOM      5  CB  PRO A   3     -42.146  13.207   9.532  0.00  0.00    +0.031 C 
ATOM      6  CA  PRO A   3     -41.789  12.751   8.114  0.00  0.00    +0.152 C 
ATOM      7  O   ALA A   2     -40.252  12.475   5.862  0.00  0.00    -0.273 OA
ENDROOT
BRANCH   6   8
ATOM      8  C   PRO A   3     -42.967  12.862   7.161  0.00  0.00    +0.241 C 
ATOM      9  N   HIS A   4     -43.695  11.754   7.019  0.00  0.00    -0.298 N 
ATOM     10  H   HIS A   4     -43.405  10.901   7.539  0.00  0.00    +0.150 HD
ATOM     11  O   PRO A   3     -43.195  13.908   6.567  0.00  0.00    -0.273 OA
BRANCH   9  12
ATOM     12  CA  HIS A   4     -44.883  11.681   6.166  0.00  0.00    +0.143 C 
BRANCH  12  13
ATOM     13  C   HIS A   4     -45.811  12.868   6.474  0.00  0.00    +0.227 C 
ATOM     14  O   HIS A   4     -46.008  13.199   7.651  0.00  0.00    -0.286 OA
ENDBRANCH  12  13
BRANCH  12  15
ATOM     15  CB  HIS A   4     -45.567  10.327   6.283  0.00  0.00    +0.075 C 
BRANCH  15  16
ATOM     16  CG  HIS A   4     -46.683  10.131   5.311  0.00  0.00    +0.082 A 
ATOM     17  CD2 HIS A   4     -48.028  10.197   5.470  0.00  0.00    +0.115 A 
ATOM     18  NE2 HIS A   4     -48.591   9.956   4.243  0.00  0.00    -0.221 NA
ATOM     19  CE1 HIS A   4     -47.629   9.750   3.362  0.00  0.00    +0.199 A 
ATOM     20  ND1 HIS A   4     -46.466   9.851   3.980  0.00  0.00    -0.227 NA
ENDBRANCH  15  16
ENDBRANCH  12  15
ENDBRANCH   9  12
ENDBRANCH   6   8
BRANCH   1  21
ATOM     21  CA  ALA A   2     -38.838  14.351   6.304  0.00  0.00    +0.149 C 
ATOM     22  CB  ALA A   2     -39.382  15.762   6.035  0.00  0.00    +0.031 C 
BRANCH  21  25
ATOM     23  C   THR A   1     -36.992  14.259   4.700  0.00  0.00    +0.241 C 
ATOM     24  O   THR A   1     -36.370  15.142   5.261  0.00  0.00    -0.274 OA
ATOM     25  N   ALA A   2     -38.174  13.825   5.115  0.00  0.00    -0.297 N 
ATOM     26  H   ALA A   2     -38.649  13.077   4.570  0.00  0.00    +0.150 HD
BRANCH  23  27
ATOM     27  CA  THR A   1     -36.449  13.603   3.445  0.00  0.00    +0.172 C 
BRANCH  27  28
ATOM     28  N   THR A   1     -35.677  14.570   2.681  0.00  0.00    -0.236 NA
ATOM     29  H   THR A   1     -34.642  14.500   2.613  0.00  0.00    +0.142 HD
ENDBRANCH  27  28
BRANCH  27  30
ATOM     30  CB  THR A   1     -35.624  12.363   3.837  0.00  0.00    +0.135 C 
ATOM     31  CG2 THR A   1     -34.847  11.848   2.632  0.00  0.00    +0.034 C 
BRANCH  30  32
ATOM     32  OG1 THR A   1     -34.714  12.704   4.892  0.00  0.00    -0.383 OA
ATOM     33  HG1 THR A   1     -34.185  11.905   5.141  0.00  0.00    +0.210 HD
ENDBRANCH  30  32
ENDBRANCH  27  30
ENDBRANCH  23  27
ENDBRANCH  21  25
ENDBRANCH   1  21
TORSDOF 11
REMARK  Name = ../refined-set-2016/3v4t/3v4t_pocket.pdb
REMARK  251 active torsions:
REMARK  status: ('A' for Active; 'I' for Inactive)
REMARK    1  A    between atoms: _1  and  _3
REMARK    2  A    between atoms: _3  and  _4
REMARK    3  A    between atoms: _3  and  _6
REMARK    4  A    between atoms: _6  and  _7
REMARK    5  A    between atoms: _7  and  _8
REMARK    6  A    between atoms: _8  and  _9
REMARK    7  A    between atoms: _9  and  _10
REMARK    8  A    between atoms: _16  and  _17
REMARK    9  A    between atoms: _16  and  _19
REMARK   10  A    between atoms: _19  and  _20
REMARK   11  A    between atoms: _25  and  _27
REMARK   12  A    between atoms: _27  and  _28
REMARK   13  A    between atoms: _31  and  _33
REMARK   14  A    between atoms: _33  and  _34
REMARK   15  A    between atoms: _37  and  _39
REMARK   16  A    between atoms: _39  and  _40
REMARK   17  A    between atoms: _39  and  _42
REMARK   18  A    between atoms: _42  and  _43
REMARK   19  A    between atoms: _47  and  _48
REMARK   20  A    between atoms: _53  and  _55
REMARK   21  A    between atoms: _55  and  _56
REMARK   22  A    between atoms: _55  and  _58
REMARK   23  A    between atoms: _58  and  _59
REMARK   24  A    between atoms: _62  and  _64
REMARK   25  A    between atoms: _64  and  _65
REMARK   26  A    between atoms: _64  and  _67
REMARK   27  A    between atoms: _67  and  _68
REMARK   28  A    between atoms: _68  and  _69
REMARK   29  A    between atoms: _73  and  _74
REMARK   30  A    between atoms: _73  and  _76
REMARK   31  A    between atoms: _76  and  _77
REMARK   32  A    between atoms: _77  and  _78
REMARK   33  A    between atoms: _78  and  _79
REMARK   34  A    between atoms: _88  and  _90
REMARK   35  A    between atoms: _90  and  _91
REMARK   36  A    between atoms: _94  and  _96
REMARK   37  A    between atoms: _96  and  _97
REMARK   38  A    between atoms: _96  and  _99
REMARK   39  A    between atoms: _99  and  _100
REMARK   40  A    between atoms: _102  and  _104
REMARK   41  A    between atoms: _104  and  _105
REMARK   42  A    between atoms: _104  and  _107
REMARK   43  A    between atoms: _107  and  _108
REMARK   44  A    between atoms: _113  and  _114
REMARK   45  A    between atoms: _113  and  _116
REMARK   46  A    between atoms: _116  and  _117
REMARK   47  A    between atoms: _127  and  _129
REMARK   48  A    between atoms: _129  and  _130
REMARK   49  A    between atoms: _129  and  _132
REMARK   50  A    between atoms: _132  and  _133
REMARK   51  A    between atoms: _136  and  _138
REMARK   52  A    between atoms: _138  and  _139
REMARK   53  A    between atoms: _141  and  _143
REMARK   54  A    between atoms: _143  and  _144
REMARK   55  A    between atoms: _147  and  _149
REMARK   56  A    between atoms: _149  and  _150
REMARK   57  A    between atoms: _149  and  _152
REMARK   58  A    between atoms: _152  and  _153
REMARK   59  A    between atoms: _153  and  _154
REMARK   60  A    between atoms: _154  and  _155
REMARK   61  A    between atoms: _165  and  _166
REMARK   62  A    between atoms: _171  and  _173
REMARK   63  A    between atoms: _173  and  _174
REMARK   64  A    between atoms: _173  and  _176
REMARK   65  A    between atoms: _179  and  _181
REMARK   66  A    between atoms: _181  and  _182
REMARK   67  A    between atoms: _181  and  _184
REMARK   68  A    between atoms: _184  and  _185
REMARK   69  A    between atoms: _188  and  _190
REMARK   70  A    between atoms: _190  and  _191
REMARK   71  A    between atoms: _190  and  _193
REMARK   72  A    between atoms: _193  and  _194
REMARK   73  A    between atoms: _197  and  _199
REMARK   74  A    between atoms: _199  and  _200
REMARK   75  A    between atoms: _199  and  _202
REMARK   76  A    between atoms: _202  and  _203
REMARK   77  A    between atoms: _208  and  _210
REMARK   78  A    between atoms: _210  and  _211
REMARK   79  A    between atoms: _210  and  _213
REMARK   80  A    between atoms: _213  and  _214
REMARK   81  A    between atoms: _217  and  _219
REMARK   82  A    between atoms: _219  and  _220
REMARK   83  A    between atoms: _219  and  _222
REMARK   84  A    between atoms: _222  and  _223
REMARK   85  A    between atoms: _229  and  _231
REMARK   86  A    between atoms: _231  and  _232
REMARK   87  A    between atoms: _234  and  _236
REMARK   88  A    between atoms: _236  and  _237
REMARK   89  A    between atoms: _236  and  _239
REMARK   90  A    between atoms: _239  and  _240
REMARK   91  A    between atoms: _240  and  _241
REMARK   92  A    between atoms: _243  and  _245
REMARK   93  A    between atoms: _245  and  _246
REMARK   94  A    between atoms: _245  and  _248
REMARK   95  A    between atoms: _248  and  _249
REMARK   96  A    between atoms: _252  and  _254
REMARK   97  A    between atoms: _254  and  _255
REMARK   98  A    between atoms: _254  and  _257
REMARK   99  A    between atoms: _257  and  _258
REMARK  100  A    between atoms: _258  and  _259
REMARK  101  A    between atoms: _259  and  _260
REMARK  102  A    between atoms: _260  and  _261
REMARK  103  A    between atoms: _265  and  _267
REMARK  104  A    between atoms: _267  and  _268
REMARK  105  A    between atoms: _267  and  _270
REMARK  106  A    between atoms: _275  and  _276
REMARK  107  A    between atoms: _275  and  _278
REMARK  108  A    between atoms: _278  and  _279
REMARK  109  A    between atoms: _281  and  _283
REMARK  110  A    between atoms: _283  and  _284
REMARK  111  A    between atoms: _283  and  _286
REMARK  112  A    between atoms: _289  and  _291
REMARK  113  A    between atoms: _291  and  _292
REMARK  114  A    between atoms: _294  and  _296
REMARK  115  A    between atoms: _296  and  _297
REMARK  116  A    between atoms: _300  and  _302
REMARK  117  A    between atoms: _302  and  _303
REMARK  118  A    between atoms: _302  and  _305
REMARK  119  A    between atoms: _305  and  _306
REMARK  120  A    between atoms: _309  and  _311
REMARK  121  A    between atoms: _311  and  _312
REMARK  122  A    between atoms: _311  and  _314
REMARK  123  A    between atoms: _317  and  _319
REMARK  124  A    between atoms: _319  and  _320
REMARK  125  A    between atoms: _319  and  _322
REMARK  126  A    between atoms: _322  and  _323
REMARK  127  A    between atoms: _326  and  _328
REMARK  128  A    between atoms: _328  and  _329
REMARK  129  A    between atoms: _332  and  _334
REMARK  130  A    between atoms: _334  and  _335
REMARK  131  A    between atoms: _334  and  _337
REMARK  132  A    between atoms: _337  and  _338
REMARK  133  A    between atoms: _338  and  _339
REMARK  134  A    between atoms: _342  and  _344
REMARK  135  A    between atoms: _344  and  _345
REMARK  136  A    between atoms: _344  and  _347
REMARK  137  A    between atoms: _347  and  _348
REMARK  138  A    between atoms: _348  and  _349
REMARK  139  A    between atoms: _352  and  _354
REMARK  140  A    between atoms: _354  and  _355
REMARK  141  A    between atoms: _354  and  _357
REMARK  142  A    between atoms: _357  and  _358
REMARK  143  A    between atoms: _361  and  _363
REMARK  144  A    between atoms: _363  and  _364
REMARK  145  A    between atoms: _363  and  _366
REMARK  146  A    between atoms: _366  and  _367
REMARK  147  A    between atoms: _367  and  _368
REMARK  148  A    between atoms: _368  and  _369
REMARK  149  A    between atoms: _378  and  _380
REMARK  150  A    between atoms: _380  and  _381
REMARK  151  A    between atoms: _380  and  _383
REMARK  152  A    between atoms: _383  and  _384
REMARK  153  A    between atoms: _387  and  _389
REMARK  154  A    between atoms: _389  and  _390
REMARK  155  A    between atoms: _389  and  _392
REMARK  156  A    between atoms: _392  and  _393
REMARK  157  A    between atoms: _396  and  _398
REMARK  158  A    between atoms: _398  and  _399
REMARK  159  A    between atoms: _403  and  _404
REMARK  160  A    between atoms: _409  and  _411
REMARK  161  A    between atoms: _411  and  _412
REMARK  162  A    between atoms: _411  and  _414
REMARK  163  A    between atoms: _414  and  _415
REMARK  164  A    between atoms: _420  and  _422
REMARK  165  A    between atoms: _422  and  _423
REMARK  166  A    between atoms: _422  and  _425
REMARK  167  A    between atoms: _425  and  _426
REMARK  168  A    between atoms: _433  and  _434
REMARK  169  A    between atoms: _439  and  _441
REMARK  170  A    between atoms: _441  and  _442
REMARK  171  A    between atoms: _441  and  _444
REMARK  172  A    between atoms: _444  and  _445
REMARK  173  A    between atoms: _448  and  _450
REMARK  174  A    between atoms: _450  and  _451
REMARK  175  A    between atoms: _450  and  _453
REMARK  176  A    between atoms: _453  and  _454
REMARK  177  A    between atoms: _457  and  _459
REMARK  178  A    between atoms: _459  and  _460
REMARK  179  A    between atoms: _459  and  _462
REMARK  180  A    between atoms: _462  and  _463
REMARK  181  A    between atoms: _463  and  _464
REMARK  182  A    between atoms: _468  and  _469
REMARK  183  A    between atoms: _468  and  _471
REMARK  184  A    between atoms: _471  and  _472
REMARK  185  A    between atoms: _472  and  _473
REMARK  186  A    between atoms: _478  and  _480
REMARK  187  A    between atoms: _480  and  _481
REMARK  188  A    between atoms: _480  and  _483
REMARK  189  A    between atoms: _483  and  _484
REMARK  190  A    between atoms: _484  and  _485
REMARK  191  A    between atoms: _488  and  _490
REMARK  192  A    between atoms: _490  and  _491
REMARK  193  A    between atoms: _490  and  _493
REMARK  194  A    between atoms: _493  and  _494
REMARK  195  A    between atoms: _497  and  _499
REMARK  196  A    between atoms: _499  and  _500
REMARK  197  A    between atoms: _499  and  _502
REMARK  198  A    between atoms: _502  and  _503
REMARK  199  A    between atoms: _506  and  _508
REMARK  200  A    between atoms: _508  and  _509
REMARK  201  A    between atoms: _508  and  _511
REMARK  202  A    between atoms: _511  and  _512
REMARK  203  A    between atoms: _520  and  _521
REMARK  204  A    between atoms: _520  and  _523
REMARK  205  A    between atoms: _523  and  _524
REMARK  206  A    between atoms: _524  and  _525
REMARK  207  A    between atoms: _528  and  _530
REMARK  208  A    between atoms: _530  and  _531
REMARK  209  A    between atoms: _530  and  _533
REMARK  210  A    between atoms: _533  and  _534
REMARK  211  A    between atoms: _539  and  _541
REMARK  212  A    between atoms: _541  and  _542
REMARK  213  A    between atoms: _541  and  _544
REMARK  214  A    between atoms: _544  and  _545
REMARK  215  A    between atoms: _545  and  _546
REMARK  216  A    between atoms: _546  and  _547
REMARK  217  A    between atoms: _556  and  _558
REMARK  218  A    between atoms: _558  and  _559
REMARK  219  A    between atoms: _558  and  _561
REMARK  220  A    between atoms: _561  and  _562
REMARK  221  A    between atoms: _565  and  _567
REMARK  222  A    between atoms: _567  and  _568
REMARK  223  A    between atoms: _567  and  _570
REMARK  224  A    between atoms: _570  and  _571
REMARK  225  A    between atoms: _574  and  _576
REMARK  226  A    between atoms: _576  and  _577
REMARK  227  A    between atoms: _576  and  _579
REMARK  228  A    between atoms: _579  and  _580
REMARK  229  A    between atoms: _580  and  _581
REMARK  230  A    between atoms: _581  and  _582
REMARK  231  A    between atoms: _591  and  _593
REMARK  232  A    between atoms: _593  and  _594
REMARK  233  A    between atoms: _593  and  _596
REMARK  234  A    between atoms: _596  and  _597
REMARK  235  A    between atoms: _597  and  _598
REMARK  236  A    between atoms: _598  and  _599
REMARK  237  A    between atoms: _608  and  _610
REMARK  238  A    between atoms: _610  and  _611
REMARK  239  A    between atoms: _610  and  _613
REMARK  240  A    between atoms: _613  and  _614
REMARK  241  A    between atoms: _614  and  _615
REMARK  242  A    between atoms: _615  and  _616
REMARK  243  A    between atoms: _625  and  _627
REMARK  244  A    between atoms: _627  and  _628
REMARK  245  A    between atoms: _627  and  _630
REMARK  246  A    between atoms: _630  and  _631
REMARK  247  A    between atoms: _634  and  _636
REMARK  248  A    between atoms: _636  and  _637
REMARK  249  A    between atoms: _636  and  _639
REMARK  250  A    between atoms: _639  and  _640
REMARK  251  A    between atoms: _640  and  _641
REMARK                            x       y       z     vdW  Elec       q    Type
REMARK                         _______ _______ _______ _____ _____    ______ ____
ROOT
ATOM      1  C   THR A   3     -36.335   7.109   3.087  0.00  0.00    +0.243 C 
ATOM      2  N   ASP A   4     -37.405   6.322   2.998  0.00  0.00    -0.296 N 
ATOM      3  H   ASP A   4     -38.321   6.665   3.352  0.00  0.00    +0.150 HD
ATOM      4  O   THR A   3     -35.242   6.743   2.685  0.00  0.00    -0.273 OA
ENDROOT
BRANCH   1   5
ATOM      5  CA  THR A   3     -36.510   8.517   3.709  0.00  0.00    +0.176 C 
BRANCH   5   7
ATOM      6  C   PRO A   2     -38.575   8.996   2.561  0.00  0.00    +0.241 C 
ATOM      7  N   THR A   3     -37.905   8.951   3.707  0.00  0.00    -0.295 N 
ATOM      8  H   THR A   3     -38.370   9.223   4.597  0.00  0.00    +0.150 HD
ATOM      9  O   PRO A   2     -38.058   8.674   1.473  0.00  0.00    -0.273 OA
BRANCH   6  13
ATOM     10  C   PHE A   1     -40.132  11.805   1.849  0.00  0.00    +0.242 C 
ATOM     11  O   PHE A   1     -39.376  12.200   2.715  0.00  0.00    -0.273 OA
ATOM     12  N   PRO A   2     -40.484  10.515   1.747  0.00  0.00    -0.272 N 
ATOM     13  CA  PRO A   2     -40.038   9.432   2.642  0.00  0.00    +0.152 C 
ATOM     14  CB  PRO A   2     -40.974   8.283   2.272  0.00  0.00    +0.031 C 
ATOM     15  CG  PRO A   2     -41.098   8.451   0.822  0.00  0.00    +0.024 C 
ATOM     16  CD  PRO A   2     -41.294   9.961   0.645  0.00  0.00    +0.094 C 
BRANCH  10  17
ATOM     17  CA  PHE A   1     -40.700  12.786   0.842  0.00  0.00    +0.149 C 
BRANCH  17  18
ATOM     18  N   PHE A   1     -41.415  13.833   1.541  0.00  0.00    -0.238 NA
ATOM     19  H   PHE A   1     -41.058  14.809   1.503  0.00  0.00    +0.142 HD
ENDBRANCH  17  18
BRANCH  17  20
ATOM     20  CB  PHE A   1     -39.713  13.356  -0.167  0.00  0.00    +0.053 C 
BRANCH  20  21
ATOM     21  CG  PHE A   1     -38.998  12.329  -0.975  0.00  0.00    -0.020 A 
ATOM     22  CD2 PHE A   1     -38.019  11.535  -0.403  0.00  0.00    -0.004 A 
ATOM     23  CE2 PHE A   1     -37.333  10.599  -1.159  0.00  0.00    -0.000 A 
ATOM     24  CZ  PHE A   1     -37.624  10.449  -2.495  0.00  0.00    -0.000 A 
ATOM     25  CE1 PHE A   1     -38.601  11.232  -3.079  0.00  0.00    -0.000 A 
ATOM     26  CD1 PHE A   1     -39.286  12.169  -2.319  0.00  0.00    -0.004 A 
ENDBRANCH  20  21
ENDBRANCH  17  20
ENDBRANCH  10  17
ENDBRANCH   6  13
ENDBRANCH   5   7
BRANCH   5  27
ATOM     27  CB  THR A   3     -35.930   8.518   5.145  0.00  0.00    +0.137 C 
ATOM     28  CG2 THR A   3     -36.787   7.668   6.073  0.00  0.00    +0.034 C 
BRANCH  27  29
ATOM     29  OG1 THR A   3     -34.592   8.006   5.125  0.00  0.00    -0.382 OA
ATOM     30  HG1 THR A   3     -34.030   8.577   4.543  0.00  0.00    +0.210 HD
ENDBRANCH  27  29
ENDBRANCH   5  27
ENDBRANCH   1   5
BRANCH   2  31
ATOM     31  CA  ASP A   4     -37.316   4.969   2.405  0.00  0.00    +0.160 C 
BRANCH  31  32
ATOM     32  C   ASP A   4     -37.237   4.919   0.878  0.00  0.00    +0.241 C 
ATOM     33  O   ASP A   4     -37.070   3.852   0.287  0.00  0.00    -0.273 OA
ATOM     34  N   MET A   5     -37.388   6.088   0.265  0.00  0.00    -0.297 N 
ATOM     35  H   MET A   5     -37.558   6.928   0.854  0.00  0.00    +0.150 HD
BRANCH  34  36
ATOM     36  CA  MET A   5     -37.330   6.267  -1.180  0.00  0.00    +0.150 C 
BRANCH  36  37
ATOM     37  C   MET A   5     -36.047   6.995  -1.548  0.00  0.00    +0.244 C 
ATOM     38  N   GLN A   6     -35.351   7.446  -0.518  0.00  0.00    -0.283 N 
ATOM     39  H   GLN A   6     -35.704   7.261   0.443  0.00  0.00    +0.155 HD
ATOM     40  CA  GLN A   6     -34.118   8.186  -0.675  0.00  0.00    +0.071 C 
ATOM     41  O   MET A   5     -35.698   7.141  -2.714  0.00  0.00    -0.273 OA
BRANCH  40  42
ATOM     42  C   GLN A   6     -32.986   7.672  -1.576  0.00  0.00    +0.244 C 
ATOM     43  O   GLN A   6     -32.505   8.383  -2.454  0.00  0.00    -0.282 OA
ENDBRANCH  40  42
BRANCH  40  44
ATOM     44  CB  GLN A   6     -33.715   8.957   0.592  0.00  0.00    +0.054 C 
BRANCH  44  45
ATOM     45  CG  GLN A   6     -32.453   9.738   0.491  0.00  0.00    +0.091 C 
BRANCH  45  46
ATOM     46  CD  GLN A   6     -31.210   8.901   0.680  0.00  0.00    +0.220 C 
ATOM     47  NE2 GLN A   6     -31.058   8.331   1.857  0.00  0.00    -0.329 N 
ATOM     48 HE21 GLN A   6     -31.779   8.461   2.595  0.00  0.00    +0.145 HD
ATOM     49 HE22 GLN A   6     -30.217   7.750   2.049  0.00  0.00    +0.145 HD
ATOM     50  OE1 GLN A   6     -30.391   8.778  -0.220  0.00  0.00    -0.275 OA
ENDBRANCH  45  46
ENDBRANCH  44  45
ENDBRANCH  40  44
ENDBRANCH  36  37
BRANCH  36  51
ATOM     51  CB  MET A   5     -38.566   6.951  -1.728  0.00  0.00    +0.041 C 
BRANCH  51  52
ATOM     52  CG  MET A   5     -39.753   6.037  -1.825  0.00  0.00    +0.060 C 
BRANCH  52  53
ATOM     53  SD  MET A   5     -39.462   4.921  -3.186  0.00  0.00    -0.139 S 
ATOM     54  CE  MET A   5     -38.956   3.616  -2.388  0.00  0.00    +0.069 C 
ENDBRANCH  52  53
ENDBRANCH  51  52
ENDBRANCH  36  51
ENDBRANCH  34  36
ENDBRANCH  31  32
BRANCH  31  55
ATOM     55  CB  ASP A   4     -38.288   3.939   2.986  0.00  0.00    +0.143 C 
BRANCH  55  56
ATOM     56  CG  ASP A   4     -37.838   3.390   4.322  0.00  0.00    +0.367 C 
ATOM     57  OD2 ASP A   4     -38.698   2.890   5.085  0.00  0.00    -0.246 OA
ATOM     58  OD1 ASP A   4     -36.619   3.433   4.599  0.00  0.00    -0.246 OA
ENDBRANCH  55  56
ENDBRANCH  31  55
ENDBRANCH   2  31
TORSDOF 22
REMARK  Name = ../refined-set-2016/3v4t/3v4t_pocket.pdb
REMARK  251 active torsions:
REMARK  status: ('A' for Active; 'I' for Inactive)
REMARK    1  A    between atoms: _1  and  _3
REMARK    2  A    between atoms: _3  and  _4
REMARK    3  A    between atoms: _3  and  _6
REMARK    4  A    between atoms: _6  and  _7
REMARK    5  A    between atoms: _7  and  _8
REMARK    6  A    between atoms: _8  and  _9
REMARK    7  A    between atoms: _9  and  _10
REMARK    8  A    between atoms: _16  and  _17
REMARK    9  A    between atoms: _16  and  _19
REMARK   10  A    between atoms: _19  and  _20
REMARK   11  A    between atoms: _25  and  _27
REMARK   12  A    between atoms: _27  and  _28
REMARK   13  A    between atoms: _31  and  _33
REMARK   14  A    between atoms: _33  and  _34
REMARK   15  A    between atoms: _37  and  _39
REMARK   16  A    between atoms: _39  and  _40
REMARK   17  A    between atoms: _39  and  _42
REMARK   18  A    between atoms: _42  and  _43
REMARK   19  A    between atoms: _47  and  _48
REMARK   20  A    between atoms: _53  and  _55
REMARK   21  A    between atoms: _55  and  _56
REMARK   22  A    between atoms: _55  and  _58
REMARK   23  A    between atoms: _58  and  _59
REMARK   24  A    between atoms: _62  and  _64
REMARK   25  A    between atoms: _64  and  _65
REMARK   26  A    between atoms: _64  and  _67
REMARK   27  A    between atoms: _67  and  _68
REMARK   28  A    between atoms: _68  and  _69
REMARK   29  A    between atoms: _73  and  _74
REMARK   30  A    between atoms: _73  and  _76
REMARK   31  A    between atoms: _76  and  _77
REMARK   32  A    between atoms: _77  and  _78
REMARK   33  A    between atoms: _78  and  _79
REMARK   34  A    between atoms: _88  and  _90
REMARK   35  A    between atoms: _90  and  _91
REMARK   36  A    between atoms: _94  and  _96
REMARK   37  A    between atoms: _96  and  _97
REMARK   38  A    between atoms: _96  and  _99
REMARK   39  A    between atoms: _99  and  _100
REMARK   40  A    between atoms: _102  and  _104
REMARK   41  A    between atoms: _104  and  _105
REMARK   42  A    between atoms: _104  and  _107
REMARK   43  A    between atoms: _107  and  _108
REMARK   44  A    between atoms: _113  and  _114
REMARK   45  A    between atoms: _113  and  _116
REMARK   46  A    between atoms: _116  and  _117
REMARK   47  A    between atoms: _127  and  _129
REMARK   48  A    between atoms: _129  and  _130
REMARK   49  A    between atoms: _129  and  _132
REMARK   50  A    between atoms: _132  and  _133
REMARK   51  A    between atoms: _136  and  _138
REMARK   52  A    between atoms: _138  and  _139
REMARK   53  A    between atoms: _141  and  _143
REMARK   54  A    between atoms: _143  and  _144
REMARK   55  A    between atoms: _147  and  _149
REMARK   56  A    between atoms: _149  and  _150
REMARK   57  A    between atoms: _149  and  _152
REMARK   58  A    between atoms: _152  and  _153
REMARK   59  A    between atoms: _153  and  _154
REMARK   60  A    between atoms: _154  and  _155
REMARK   61  A    between atoms: _165  and  _166
REMARK   62  A    between atoms: _171  and  _173
REMARK   63  A    between atoms: _173  and  _174
REMARK   64  A    between atoms: _173  and  _176
REMARK   65  A    between atoms: _179  and  _181
REMARK   66  A    between atoms: _181  and  _182
REMARK   67  A    between atoms: _181  and  _184
REMARK   68  A    between atoms: _184  and  _185
REMARK   69  A    between atoms: _188  and  _190
REMARK   70  A    between atoms: _190  and  _191
REMARK   71  A    between atoms: _190  and  _193
REMARK   72  A    between atoms: _193  and  _194
REMARK   73  A    between atoms: _197  and  _199
REMARK   74  A    between atoms: _199  and  _200
REMARK   75  A    between atoms: _199  and  _202
REMARK   76  A    between atoms: _202  and  _203
REMARK   77  A    between atoms: _208  and  _210
REMARK   78  A    between atoms: _210  and  _211
REMARK   79  A    between atoms: _210  and  _213
REMARK   80  A    between atoms: _213  and  _214
REMARK   81  A    between atoms: _217  and  _219
REMARK   82  A    between atoms: _219  and  _220
REMARK   83  A    between atoms: _219  and  _222
REMARK   84  A    between atoms: _222  and  _223
REMARK   85  A    between atoms: _229  and  _231
REMARK   86  A    between atoms: _231  and  _232
REMARK   87  A    between atoms: _234  and  _236
REMARK   88  A    between atoms: _236  and  _237
REMARK   89  A    between atoms: _236  and  _239
REMARK   90  A    between atoms: _239  and  _240
REMARK   91  A    between atoms: _240  and  _241
REMARK   92  A    between atoms: _243  and  _245
REMARK   93  A    between atoms: _245  and  _246
REMARK   94  A    between atoms: _245  and  _248
REMARK   95  A    between atoms: _248  and  _249
REMARK   96  A    between atoms: _252  and  _254
REMARK   97  A    between atoms: _254  and  _255
REMARK   98  A    between atoms: _254  and  _257
REMARK   99  A    between atoms: _257  and  _258
REMARK  100  A    between atoms: _258  and  _259
REMARK  101  A    between atoms: _259  and  _260
REMARK  102  A    between atoms: _260  and  _261
REMARK  103  A    between atoms: _265  and  _267
REMARK  104  A    between atoms: _267  and  _268
REMARK  105  A    between atoms: _267  and  _270
REMARK  106  A    between atoms: _275  and  _276
REMARK  107  A    between atoms: _275  and  _278
REMARK  108  A    between atoms: _278  and  _279
REMARK  109  A    between atoms: _281  and  _283
REMARK  110  A    between atoms: _283  and  _284
REMARK  111  A    between atoms: _283  and  _286
REMARK  112  A    between atoms: _289  and  _291
REMARK  113  A    between atoms: _291  and  _292
REMARK  114  A    between atoms: _294  and  _296
REMARK  115  A    between atoms: _296  and  _297
REMARK  116  A    between atoms: _300  and  _302
REMARK  117  A    between atoms: _302  and  _303
REMARK  118  A    between atoms: _302  and  _305
REMARK  119  A    between atoms: _305  and  _306
REMARK  120  A    between atoms: _309  and  _311
REMARK  121  A    between atoms: _311  and  _312
REMARK  122  A    between atoms: _311  and  _314
REMARK  123  A    between atoms: _317  and  _319
REMARK  124  A    between atoms: _319  and  _320
REMARK  125  A    between atoms: _319  and  _322
REMARK  126  A    between atoms: _322  and  _323
REMARK  127  A    between atoms: _326  and  _328
REMARK  128  A    between atoms: _328  and  _329
REMARK  129  A    between atoms: _332  and  _334
REMARK  130  A    between atoms: _334  and  _335
REMARK  131  A    between atoms: _334  and  _337
REMARK  132  A    between atoms: _337  and  _338
REMARK  133  A    between atoms: _338  and  _339
REMARK  134  A    between atoms: _342  and  _344
REMARK  135  A    between atoms: _344  and  _345
REMARK  136  A    between atoms: _344  and  _347
REMARK  137  A    between atoms: _347  and  _348
REMARK  138  A    between atoms: _348  and  _349
REMARK  139  A    between atoms: _352  and  _354
REMARK  140  A    between atoms: _354  and  _355
REMARK  141  A    between atoms: _354  and  _357
REMARK  142  A    between atoms: _357  and  _358
REMARK  143  A    between atoms: _361  and  _363
REMARK  144  A    between atoms: _363  and  _364
REMARK  145  A    between atoms: _363  and  _366
REMARK  146  A    between atoms: _366  and  _367
REMARK  147  A    between atoms: _367  and  _368
REMARK  148  A    between atoms: _368  and  _369
REMARK  149  A    between atoms: _378  and  _380
REMARK  150  A    between atoms: _380  and  _381
REMARK  151  A    between atoms: _380  and  _383
REMARK  152  A    between atoms: _383  and  _384
REMARK  153  A    between atoms: _387  and  _389
REMARK  154  A    between atoms: _389  and  _390
REMARK  155  A    between atoms: _389  and  _392
REMARK  156  A    between atoms: _392  and  _393
REMARK  157  A    between atoms: _396  and  _398
REMARK  158  A    between atoms: _398  and  _399
REMARK  159  A    between atoms: _403  and  _404
REMARK  160  A    between atoms: _409  and  _411
REMARK  161  A    between atoms: _411  and  _412
REMARK  162  A    between atoms: _411  and  _414
REMARK  163  A    between atoms: _414  and  _415
REMARK  164  A    between atoms: _420  and  _422
REMARK  165  A    between atoms: _422  and  _423
REMARK  166  A    between atoms: _422  and  _425
REMARK  167  A    between atoms: _425  and  _426
REMARK  168  A    between atoms: _433  and  _434
REMARK  169  A    between atoms: _439  and  _441
REMARK  170  A    between atoms: _441  and  _442
REMARK  171  A    between atoms: _441  and  _444
REMARK  172  A    between atoms: _444  and  _445
REMARK  173  A    between atoms: _448  and  _450
REMARK  174  A    between atoms: _450  and  _451
REMARK  175  A    between atoms: _450  and  _453
REMARK  176  A    between atoms: _453  and  _454
REMARK  177  A    between atoms: _457  and  _459
REMARK  178  A    between atoms: _459  and  _460
REMARK  179  A    between atoms: _459  and  _462
REMARK  180  A    between atoms: _462  and  _463
REMARK  181  A    between atoms: _463  and  _464
REMARK  182  A    between atoms: _468  and  _469
REMARK  183  A    between atoms: _468  and  _471
REMARK  184  A    between atoms: _471  and  _472
REMARK  185  A    between atoms: _472  and  _473
REMARK  186  A    between atoms: _478  and  _480
REMARK  187  A    between atoms: _480  and  _481
REMARK  188  A    between atoms: _480  and  _483
REMARK  189  A    between atoms: _483  and  _484
REMARK  190  A    between atoms: _484  and  _485
REMARK  191  A    between atoms: _488  and  _490
REMARK  192  A    between atoms: _490  and  _491
REMARK  193  A    between atoms: _490  and  _493
REMARK  194  A    between atoms: _493  and  _494
REMARK  195  A    between atoms: _497  and  _499
REMARK  196  A    between atoms: _499  and  _500
REMARK  197  A    between atoms: _499  and  _502
REMARK  198  A    between atoms: _502  and  _503
REMARK  199  A    between atoms: _506  and  _508
REMARK  200  A    between atoms: _508  and  _509
REMARK  201  A    between atoms: _508  and  _511
REMARK  202  A    between atoms: _511  and  _512
REMARK  203  A    between atoms: _520  and  _521
REMARK  204  A    between atoms: _520  and  _523
REMARK  205  A    between atoms: _523  and  _524
REMARK  206  A    between atoms: _524  and  _525
REMARK  207  A    between atoms: _528  and  _530
REMARK  208  A    between atoms: _530  and  _531
REMARK  209  A    between atoms: _530  and  _533
REMARK  210  A    between atoms: _533  and  _534
REMARK  211  A    between atoms: _539  and  _541
REMARK  212  A    between atoms: _541  and  _542
REMARK  213  A    between atoms: _541  and  _544
REMARK  214  A    between atoms: _544  and  _545
REMARK  215  A    between atoms: _545  and  _546
REMARK  216  A    between atoms: _546  and  _547
REMARK  217  A    between atoms: _556  and  _558
REMARK  218  A    between atoms: _558  and  _559
REMARK  219  A    between atoms: _558  and  _561
REMARK  220  A    between atoms: _561  and  _562
REMARK  221  A    between atoms: _565  and  _567
REMARK  222  A    between atoms: _567  and  _568
REMARK  223  A    between atoms: _567  and  _570
REMARK  224  A    between atoms: _570  and  _571
REMARK  225  A    between atoms: _574  and  _576
REMARK  226  A    between atoms: _576  and  _577
REMARK  227  A    between atoms: _576  and  _579
REMARK  228  A    between atoms: _579  and  _580
REMARK  229  A    between atoms: _580  and  _581
REMARK  230  A    between atoms: _581  and  _582
REMARK  231  A    between atoms: _591  and  _593
REMARK  232  A    between atoms: _593  and  _594
REMARK  233  A    between atoms: _593  and  _596
REMARK  234  A    between atoms: _596  and  _597
REMARK  235  A    between atoms: _597  and  _598
REMARK  236  A    between atoms: _598  and  _599
REMARK  237  A    between atoms: _608  and  _610
REMARK  238  A    between atoms: _610  and  _611
REMARK  239  A    between atoms: _610  and  _613
REMARK  240  A    between atoms: _613  and  _614
REMARK  241  A    between atoms: _614  and  _615
REMARK  242  A    between atoms: _615  and  _616
REMARK  243  A    between atoms: _625  and  _627
REMARK  244  A    between atoms: _627  and  _628
REMARK  245  A    between atoms: _627  and  _630
REMARK  246  A    between atoms: _630  and  _631
REMARK  247  A    between atoms: _634  and  _636
REMARK  248  A    between atoms: _636  and  _637
REMARK  249  A    between atoms: _636  and  _639
REMARK  250  A    between atoms: _639  and  _640
REMARK  251  A    between atoms: _640  and  _641
REMARK                            x       y       z     vdW  Elec       q    Type
REMARK                         _______ _______ _______ _____ _____    ______ ____
ROOT
ATOM      1  C   PHE A   4     -29.753   9.895   8.302  0.00  0.00    +0.244 C 
ATOM      2  N   GLU A   5     -29.016  10.690   9.054  0.00  0.00    -0.282 N 
ATOM      3  H   GLU A   5     -29.259  10.834  10.055  0.00  0.00    +0.155 HD
ATOM      4  CA  GLU A   5     -27.858  11.368   8.478  0.00  0.00    +0.082 C 
ATOM      5  O   PHE A   4     -29.473   9.675   7.122  0.00  0.00    -0.273 OA
ENDROOT
BRANCH   4   6
ATOM      6  C   GLU A   5     -26.749  10.609   7.723  0.00  0.00    +0.256 C 
ATOM      7  N   ASN A   6     -26.634   9.313   8.057  0.00  0.00    -0.294 N 
ATOM      8  H   ASN A   6     -27.282   8.953   8.787  0.00  0.00    +0.150 HD
ATOM      9  O   GLU A   5     -26.048  11.194   6.866  0.00  0.00    -0.269 OA
BRANCH   7  10
ATOM     10  CA  ASN A   6     -25.672   8.354   7.482  0.00  0.00    +0.158 C 
BRANCH  10  11
ATOM     11  C   ASN A   6     -26.323   7.409   6.455  0.00  0.00    +0.241 C 
ATOM     12  O   ASN A   6     -25.835   6.309   6.194  0.00  0.00    -0.273 OA
ATOM     13  N   ARG A   7     -27.442   7.825   5.882  0.00  0.00    -0.298 N 
ATOM     14  H   ARG A   7     -27.844   8.752   6.127  0.00  0.00    +0.150 HD
BRANCH  13  15
ATOM     15  CA  ARG A   7     -28.107   6.970   4.903  0.00  0.00    +0.137 C 
BRANCH  15  16
ATOM     16  C   ARG A   7     -27.592   7.083   3.474  0.00  0.00    +0.227 C 
ATOM     17  O   ARG A   7     -28.373   7.115   2.531  0.00  0.00    -0.286 OA
ENDBRANCH  15  16
BRANCH  15  18
ATOM     18  CB  ARG A   7     -29.622   6.965   5.015  0.00  0.00    +0.031 C 
BRANCH  18  19
ATOM     19  CG  ARG A   7     -30.222   5.675   4.575  0.00  0.00    +0.045 C 
BRANCH  19  20
ATOM     20  CD  ARG A   7     -31.716   5.781   4.479  0.00  0.00    +0.174 C 
BRANCH  20  21
ATOM     21  NE  ARG A   7     -32.274   4.454   4.247  0.00  0.00    -0.265 N 
ATOM     22  CZ  ARG A   7     -33.521   4.102   4.537  0.00  0.00    +0.342 C 
ATOM     23  NH2 ARG A   7     -34.356   4.972   5.062  0.00  0.00    -0.292 N 
ATOM     24 HH21 ARG A   7     -35.331   4.687   5.286  0.00  0.00    +0.255 HD
ATOM     25 HH22 ARG A   7     -34.041   5.945   5.253  0.00  0.00    +0.255 HD
ATOM     26  NH1 ARG A   7     -33.914   2.860   4.327  0.00  0.00    -0.292 N 
ATOM     27 HH11 ARG A   7     -34.889   2.578   4.552  0.00  0.00    +0.255 HD
ATOM     28 HH12 ARG A   7     -33.248   2.163   3.936  0.00  0.00    +0.255 HD
ATOM     29  HE  ARG A   7     -31.653   3.734   3.826  0.00  0.00    +0.259 HD
ENDBRANCH  20  21
ENDBRANCH  19  20
ENDBRANCH  18  19
ENDBRANCH  15  18
ENDBRANCH  13  15
ENDBRANCH  10  11
BRANCH  10  30
ATOM     30  CB  ASN A   6     -24.871   7.609   8.561  0.00  0.00    +0.114 C 
BRANCH  30  31
ATOM     31  CG  ASN A   6     -23.889   6.557   7.989  0.00  0.00    +0.222 C 
ATOM     32  ND2 ASN A   6     -24.081   5.292   8.384  0.00  0.00    -0.329 N 
ATOM     33 HD21 ASN A   6     -24.864   5.062   9.028  0.00  0.00    +0.145 HD
ATOM     34 HD22 ASN A   6     -23.447   4.540   8.047  0.00  0.00    +0.145 HD
ATOM     35  OD1 ASN A   6     -22.971   6.883   7.223  0.00  0.00    -0.275 OA
ENDBRANCH  30  31
ENDBRANCH  10  30
ENDBRANCH   7  10
ENDBRANCH   4   6
BRANCH   4  36
ATOM     36  CB  GLU A   5     -27.477  12.668   9.181  0.00  0.00    +0.058 C 
BRANCH  36  37
ATOM     37  CG  GLU A   5     -28.615  13.684   9.243  0.00  0.00    +0.120 C 
BRANCH  37  38
ATOM     38  CD  GLU A   5     -28.498  14.610  10.451  0.00  0.00    +0.365 C 
ATOM     39  OE2 GLU A   5     -29.559  14.969  11.026  0.00  0.00    -0.246 OA
ATOM     40  OE1 GLU A   5     -27.348  14.979  10.816  0.00  0.00    -0.246 OA
ENDBRANCH  37  38
ENDBRANCH  36  37
ENDBRANCH   4  36
BRANCH   1  41
ATOM     41  CA  PHE A   4     -30.971   9.236   8.961  0.00  0.00    +0.153 C 
BRANCH  41  44
ATOM     42  C   ILE A   3     -32.958  10.488   9.678  0.00  0.00    +0.241 C 
ATOM     43  O   ILE A   3     -32.767  10.246  10.873  0.00  0.00    -0.273 OA
ATOM     44  N   PHE A   4     -32.163  10.042   8.707  0.00  0.00    -0.297 N 
ATOM     45  H   PHE A   4     -32.402  10.278   7.723  0.00  0.00    +0.150 HD
BRANCH  42  46
ATOM     46  CA  ILE A   3     -34.156  11.343   9.224  0.00  0.00    +0.149 C 
BRANCH  46  49
ATOM     47  C   THR A   2     -33.443  13.621   8.726  0.00  0.00    +0.243 C 
ATOM     48  O   THR A   2     -33.524  13.913   9.915  0.00  0.00    -0.273 OA
ATOM     49  N   ILE A   3     -33.736  12.400   8.283  0.00  0.00    -0.297 N 
ATOM     50  H   ILE A   3     -33.668  12.189   7.267  0.00  0.00    +0.150 HD
BRANCH  47  51
ATOM     51  CA  THR A   2     -33.001  14.684   7.699  0.00  0.00    +0.176 C 
BRANCH  51  54
ATOM     52  C   GLU A   1     -31.523  14.017   5.877  0.00  0.00    +0.238 C 
ATOM     53  O   GLU A   1     -30.511  14.289   6.534  0.00  0.00    -0.274 OA
ATOM     54  N   THR A   2     -32.765  14.179   6.348  0.00  0.00    -0.295 N 
ATOM     55  H   THR A   2     -33.576  13.941   5.742  0.00  0.00    +0.150 HD
BRANCH  52  56
ATOM     56  CA  GLU A   1     -31.392  13.480   4.446  0.00  0.00    +0.145 C 
BRANCH  56  57
ATOM     57  N   GLU A   1     -30.854  14.466   3.535  0.00  0.00    -0.238 NA
ATOM     58  H   GLU A   1     -29.860  14.757   3.632  0.00  0.00    +0.142 HD
ENDBRANCH  56  57
BRANCH  56  59
ATOM     59  CB  GLU A   1     -30.663  12.129   4.289  0.00  0.00    +0.038 C 
BRANCH  59  60
ATOM     60  CG  GLU A   1     -31.059  11.007   5.217  0.00  0.00    +0.116 C 
BRANCH  60  61
ATOM     61  CD  GLU A   1     -32.431  10.409   4.930  0.00  0.00    +0.365 C 
ATOM     62  OE2 GLU A   1     -33.367  10.719   5.685  0.00  0.00    -0.246 OA
ATOM     63  OE1 GLU A   1     -32.579   9.627   3.968  0.00  0.00    -0.246 OA
ENDBRANCH  60  61
ENDBRANCH  59  60
ENDBRANCH  56  59
ENDBRANCH  52  56
ENDBRANCH  51  54
BRANCH  51  64
ATOM     64  CB  THR A   2     -34.056  15.833   7.711  0.00  0.00    +0.137 C 
ATOM     65  CG2 THR A   2     -33.745  16.882   6.626  0.00  0.00    +0.034 C 
BRANCH  64  66
ATOM     66  OG1 THR A   2     -35.369  15.292   7.499  0.00  0.00    -0.382 OA
ATOM     67  HG1 THR A   2     -35.397  14.831   6.623  0.00  0.00    +0.210 HD
ENDBRANCH  64  66
ENDBRANCH  51  64
ENDBRANCH  47  51
ENDBRANCH  46  49
BRANCH  46  68
ATOM     68  CB  ILE A   3     -35.224  10.386   8.600  0.00  0.00    +0.027 C 
ATOM     69  CG2 ILE A   3     -35.549   9.294   9.565  0.00  0.00    +0.002 C 
BRANCH  68  70
ATOM     70  CG1 ILE A   3     -36.475  11.162   8.179  0.00  0.00    +0.002 C 
ATOM     71  CD1 ILE A   3     -36.936  12.228   9.156  0.00  0.00    +0.000 C 
ENDBRANCH  68  70
ENDBRANCH  46  68
ENDBRANCH  42  46
ENDBRANCH  41  44
BRANCH  41  72
ATOM     72  CB  PHE A   4     -31.139   7.768   8.548  0.00  0.00    +0.055 C 
BRANCH  72  73
ATOM     73  CG  PHE A   4     -32.350   7.112   9.121  0.00  0.00    -0.020 A 
ATOM     74  CD2 PHE A   4     -32.388   6.745  10.457  0.00  0.00    -0.004 A 
ATOM     75  CE2 PHE A   4     -33.504   6.117  10.981  0.00  0.00    -0.000 A 
ATOM     76  CZ  PHE A   4     -34.612   5.845  10.169  0.00  0.00    -0.000 A 
ATOM     77  CE1 PHE A   4     -34.599   6.207   8.833  0.00  0.00    -0.000 A 
ATOM     78  CD1 PHE A   4     -33.467   6.841   8.309  0.00  0.00    -0.004 A 
ENDBRANCH  72  73
ENDBRANCH  41  72
ENDBRANCH   1  41
TORSDOF 31
REMARK  Name = ../refined-set-2016/3v4t/3v4t_pocket.pdb
REMARK  251 active torsions:
REMARK  status: ('A' for Active; 'I' for Inactive)
REMARK    1  A    between atoms: _1  and  _3
REMARK    2  A    between atoms: _3  and  _4
REMARK    3  A    between atoms: _3  and  _6
REMARK    4  A    between atoms: _6  and  _7
REMARK    5  A    between atoms: _7  and  _8
REMARK    6  A    between atoms: _8  and  _9
REMARK    7  A    between atoms: _9  and  _10
REMARK    8  A    between atoms: _16  and  _17
REMARK    9  A    between atoms: _16  and  _19
REMARK   10  A    between atoms: _19  and  _20
REMARK   11  A    between atoms: _25  and  _27
REMARK   12  A    between atoms: _27  and  _28
REMARK   13  A    between atoms: _31  and  _33
REMARK   14  A    between atoms: _33  and  _34
REMARK   15  A    between atoms: _37  and  _39
REMARK   16  A    between atoms: _39  and  _40
REMARK   17  A    between atoms: _39  and  _42
REMARK   18  A    between atoms: _42  and  _43
REMARK   19  A    between atoms: _47  and  _48
REMARK   20  A    between atoms: _53  and  _55
REMARK   21  A    between atoms: _55  and  _56
REMARK   22  A    between atoms: _55  and  _58
REMARK   23  A    between atoms: _58  and  _59
REMARK   24  A    between atoms: _62  and  _64
REMARK   25  A    between atoms: _64  and  _65
REMARK   26  A    between atoms: _64  and  _67
REMARK   27  A    between atoms: _67  and  _68
REMARK   28  A    between atoms: _68  and  _69
REMARK   29  A    between atoms: _73  and  _74
REMARK   30  A    between atoms: _73  and  _76
REMARK   31  A    between atoms: _76  and  _77
REMARK   32  A    between atoms: _77  and  _78
REMARK   33  A    between atoms: _78  and  _79
REMARK   34  A    between atoms: _88  and  _90
REMARK   35  A    between atoms: _90  and  _91
REMARK   36  A    between atoms: _94  and  _96
REMARK   37  A    between atoms: _96  and  _97
REMARK   38  A    between atoms: _96  and  _99
REMARK   39  A    between atoms: _99  and  _100
REMARK   40  A    between atoms: _102  and  _104
REMARK   41  A    between atoms: _104  and  _105
REMARK   42  A    between atoms: _104  and  _107
REMARK   43  A    between atoms: _107  and  _108
REMARK   44  A    between atoms: _113  and  _114
REMARK   45  A    between atoms: _113  and  _116
REMARK   46  A    between atoms: _116  and  _117
REMARK   47  A    between atoms: _127  and  _129
REMARK   48  A    between atoms: _129  and  _130
REMARK   49  A    between atoms: _129  and  _132
REMARK   50  A    between atoms: _132  and  _133
REMARK   51  A    between atoms: _136  and  _138
REMARK   52  A    between atoms: _138  and  _139
REMARK   53  A    between atoms: _141  and  _143
REMARK   54  A    between atoms: _143  and  _144
REMARK   55  A    between atoms: _147  and  _149
REMARK   56  A    between atoms: _149  and  _150
REMARK   57  A    between atoms: _149  and  _152
REMARK   58  A    between atoms: _152  and  _153
REMARK   59  A    between atoms: _153  and  _154
REMARK   60  A    between atoms: _154  and  _155
REMARK   61  A    between atoms: _165  and  _166
REMARK   62  A    between atoms: _171  and  _173
REMARK   63  A    between atoms: _173  and  _174
REMARK   64  A    between atoms: _173  and  _176
REMARK   65  A    between atoms: _179  and  _181
REMARK   66  A    between atoms: _181  and  _182
REMARK   67  A    between atoms: _181  and  _184
REMARK   68  A    between atoms: _184  and  _185
REMARK   69  A    between atoms: _188  and  _190
REMARK   70  A    between atoms: _190  and  _191
REMARK   71  A    between atoms: _190  and  _193
REMARK   72  A    between atoms: _193  and  _194
REMARK   73  A    between atoms: _197  and  _199
REMARK   74  A    between atoms: _199  and  _200
REMARK   75  A    between atoms: _199  and  _202
REMARK   76  A    between atoms: _202  and  _203
REMARK   77  A    between atoms: _208  and  _210
REMARK   78  A    between atoms: _210  and  _211
REMARK   79  A    between atoms: _210  and  _213
REMARK   80  A    between atoms: _213  and  _214
REMARK   81  A    between atoms: _217  and  _219
REMARK   82  A    between atoms: _219  and  _220
REMARK   83  A    between atoms: _219  and  _222
REMARK   84  A    between atoms: _222  and  _223
REMARK   85  A    between atoms: _229  and  _231
REMARK   86  A    between atoms: _231  and  _232
REMARK   87  A    between atoms: _234  and  _236
REMARK   88  A    between atoms: _236  and  _237
REMARK   89  A    between atoms: _236  and  _239
REMARK   90  A    between atoms: _239  and  _240
REMARK   91  A    between atoms: _240  and  _241
REMARK   92  A    between atoms: _243  and  _245
REMARK   93  A    between atoms: _245  and  _246
REMARK   94  A    between atoms: _245  and  _248
REMARK   95  A    between atoms: _248  and  _249
REMARK   96  A    between atoms: _252  and  _254
REMARK   97  A    between atoms: _254  and  _255
REMARK   98  A    between atoms: _254  and  _257
REMARK   99  A    between atoms: _257  and  _258
REMARK  100  A    between atoms: _258  and  _259
REMARK  101  A    between atoms: _259  and  _260
REMARK  102  A    between atoms: _260  and  _261
REMARK  103  A    between atoms: _265  and  _267
REMARK  104  A    between atoms: _267  and  _268
REMARK  105  A    between atoms: _267  and  _270
REMARK  106  A    between atoms: _275  and  _276
REMARK  107  A    between atoms: _275  and  _278
REMARK  108  A    between atoms: _278  and  _279
REMARK  109  A    between atoms: _281  and  _283
REMARK  110  A    between atoms: _283  and  _284
REMARK  111  A    between atoms: _283  and  _286
REMARK  112  A    between atoms: _289  and  _291
REMARK  113  A    between atoms: _291  and  _292
REMARK  114  A    between atoms: _294  and  _296
REMARK  115  A    between atoms: _296  and  _297
REMARK  116  A    between atoms: _300  and  _302
REMARK  117  A    between atoms: _302  and  _303
REMARK  118  A    between atoms: _302  and  _305
REMARK  119  A    between atoms: _305  and  _306
REMARK  120  A    between atoms: _309  and  _311
REMARK  121  A    between atoms: _311  and  _312
REMARK  122  A    between atoms: _311  and  _314
REMARK  123  A    between atoms: _317  and  _319
REMARK  124  A    between atoms: _319  and  _320
REMARK  125  A    between atoms: _319  and  _322
REMARK  126  A    between atoms: _322  and  _323
REMARK  127  A    between atoms: _326  and  _328
REMARK  128  A    between atoms: _328  and  _329
REMARK  129  A    between atoms: _332  and  _334
REMARK  130  A    between atoms: _334  and  _335
REMARK  131  A    between atoms: _334  and  _337
REMARK  132  A    between atoms: _337  and  _338
REMARK  133  A    between atoms: _338  and  _339
REMARK  134  A    between atoms: _342  and  _344
REMARK  135  A    between atoms: _344  and  _345
REMARK  136  A    between atoms: _344  and  _347
REMARK  137  A    between atoms: _347  and  _348
REMARK  138  A    between atoms: _348  and  _349
REMARK  139  A    between atoms: _352  and  _354
REMARK  140  A    between atoms: _354  and  _355
REMARK  141  A    between atoms: _354  and  _357
REMARK  142  A    between atoms: _357  and  _358
REMARK  143  A    between atoms: _361  and  _363
REMARK  144  A    between atoms: _363  and  _364
REMARK  145  A    between atoms: _363  and  _366
REMARK  146  A    between atoms: _366  and  _367
REMARK  147  A    between atoms: _367  and  _368
REMARK  148  A    between atoms: _368  and  _369
REMARK  149  A    between atoms: _378  and  _380
REMARK  150  A    between atoms: _380  and  _381
REMARK  151  A    between atoms: _380  and  _383
REMARK  152  A    between atoms: _383  and  _384
REMARK  153  A    between atoms: _387  and  _389
REMARK  154  A    between atoms: _389  and  _390
REMARK  155  A    between atoms: _389  and  _392
REMARK  156  A    between atoms: _392  and  _393
REMARK  157  A    between atoms: _396  and  _398
REMARK  158  A    between atoms: _398  and  _399
REMARK  159  A    between atoms: _403  and  _404
REMARK  160  A    between atoms: _409  and  _411
REMARK  161  A    between atoms: _411  and  _412
REMARK  162  A    between atoms: _411  and  _414
REMARK  163  A    between atoms: _414  and  _415
REMARK  164  A    between atoms: _420  and  _422
REMARK  165  A    between atoms: _422  and  _423
REMARK  166  A    between atoms: _422  and  _425
REMARK  167  A    between atoms: _425  and  _426
REMARK  168  A    between atoms: _433  and  _434
REMARK  169  A    between atoms: _439  and  _441
REMARK  170  A    between atoms: _441  and  _442
REMARK  171  A    between atoms: _441  and  _444
REMARK  172  A    between atoms: _444  and  _445
REMARK  173  A    between atoms: _448  and  _450
REMARK  174  A    between atoms: _450  and  _451
REMARK  175  A    between atoms: _450  and  _453
REMARK  176  A    between atoms: _453  and  _454
REMARK  177  A    between atoms: _457  and  _459
REMARK  178  A    between atoms: _459  and  _460
REMARK  179  A    between atoms: _459  and  _462
REMARK  180  A    between atoms: _462  and  _463
REMARK  181  A    between atoms: _463  and  _464
REMARK  182  A    between atoms: _468  and  _469
REMARK  183  A    between atoms: _468  and  _471
REMARK  184  A    between atoms: _471  and  _472
REMARK  185  A    between atoms: _472  and  _473
REMARK  186  A    between atoms: _478  and  _480
REMARK  187  A    between atoms: _480  and  _481
REMARK  188  A    between atoms: _480  and  _483
REMARK  189  A    between atoms: _483  and  _484
REMARK  190  A    between atoms: _484  and  _485
REMARK  191  A    between atoms: _488  and  _490
REMARK  192  A    between atoms: _490  and  _491
REMARK  193  A    between atoms: _490  and  _493
REMARK  194  A    between atoms: _493  and  _494
REMARK  195  A    between atoms: _497  and  _499
REMARK  196  A    between atoms: _499  and  _500
REMARK  197  A    between atoms: _499  and  _502
REMARK  198  A    between atoms: _502  and  _503
REMARK  199  A    between atoms: _506  and  _508
REMARK  200  A    between atoms: _508  and  _509
REMARK  201  A    between atoms: _508  and  _511
REMARK  202  A    between atoms: _511  and  _512
REMARK  203  A    between atoms: _520  and  _521
REMARK  204  A    between atoms: _520  and  _523
REMARK  205  A    between atoms: _523  and  _524
REMARK  206  A    between atoms: _524  and  _525
REMARK  207  A    between atoms: _528  and  _530
REMARK  208  A    between atoms: _530  and  _531
REMARK  209  A    between atoms: _530  and  _533
REMARK  210  A    between atoms: _533  and  _534
REMARK  211  A    between atoms: _539  and  _541
REMARK  212  A    between atoms: _541  and  _542
REMARK  213  A    between atoms: _541  and  _544
REMARK  214  A    between atoms: _544  and  _545
REMARK  215  A    between atoms: _545  and  _546
REMARK  216  A    between atoms: _546  and  _547
REMARK  217  A    between atoms: _556  and  _558
REMARK  218  A    between atoms: _558  and  _559
REMARK  219  A    between atoms: _558  and  _561
REMARK  220  A    between atoms: _561  and  _562
REMARK  221  A    between atoms: _565  and  _567
REMARK  222  A    between atoms: _567  and  _568
REMARK  223  A    between atoms: _567  and  _570
REMARK  224  A    between atoms: _570  and  _571
REMARK  225  A    between atoms: _574  and  _576
REMARK  226  A    between atoms: _576  and  _577
REMARK  227  A    between atoms: _576  and  _579
REMARK  228  A    between atoms: _579  and  _580
REMARK  229  A    between atoms: _580  and  _581
REMARK  230  A    between atoms: _581  and  _582
REMARK  231  A    between atoms: _591  and  _593
REMARK  232  A    between atoms: _593  and  _594
REMARK  233  A    between atoms: _593  and  _596
REMARK  234  A    between atoms: _596  and  _597
REMARK  235  A    between atoms: _597  and  _598
REMARK  236  A    between atoms: _598  and  _599
REMARK  237  A    between atoms: _608  and  _610
REMARK  238  A    between atoms: _610  and  _611
REMARK  239  A    between atoms: _610  and  _613
REMARK  240  A    between atoms: _613  and  _614
REMARK  241  A    between atoms: _614  and  _615
REMARK  242  A    between atoms: _615  and  _616
REMARK  243  A    between atoms: _625  and  _627
REMARK  244  A    between atoms: _627  and  _628
REMARK  245  A    between atoms: _627  and  _630
REMARK  246  A    between atoms: _630  and  _631
REMARK  247  A    between atoms: _634  and  _636
REMARK  248  A    between atoms: _636  and  _637
REMARK  249  A    between atoms: _636  and  _639
REMARK  250  A    between atoms: _639  and  _640
REMARK  251  A    between atoms: _640  and  _641
REMARK                            x       y       z     vdW  Elec       q    Type
REMARK                         _______ _______ _______ _____ _____    ______ ____
ROOT
ATOM      1  C   LEU A   2     -33.462  -2.068   2.203  0.00  0.00    +0.241 C 
ATOM      2  O   LEU A   2     -34.685  -2.208   2.096  0.00  0.00    -0.273 OA
ATOM      3  N   ARG A   3     -32.744  -1.114   1.589  0.00  0.00    -0.298 N 
ATOM      4  H   ARG A   3     -31.722  -1.104   1.779  0.00  0.00    +0.150 HD
ENDROOT
BRANCH   1   5
ATOM      5  CA  LEU A   2     -32.654  -3.007   3.100  0.00  0.00    +0.149 C 
BRANCH   5   7
ATOM      6  C   ASP A   1     -30.497  -1.967   2.900  0.00  0.00    +0.239 C 
ATOM      7  N   LEU A   2     -31.519  -2.308   3.667  0.00  0.00    -0.297 N 
ATOM      8  H   LEU A   2     -31.508  -2.074   4.680  0.00  0.00    +0.150 HD
ATOM      9  O   ASP A   1     -30.439  -2.255   1.719  0.00  0.00    -0.274 OA
BRANCH   6  10
ATOM     10  CA  ASP A   1     -29.372  -1.187   3.547  0.00  0.00    +0.156 C 
BRANCH  10  11
ATOM     11  N   ASP A   1     -28.092  -1.723   3.091  0.00  0.00    -0.238 NA
ATOM     12  H   ASP A   1     -27.805  -1.514   2.113  0.00  0.00    +0.142 HD
ENDBRANCH  10  11
BRANCH  10  13
ATOM     13  CB  ASP A   1     -29.461   0.316   3.222  0.00  0.00    +0.140 C 
BRANCH  13  14
ATOM     14  CG  ASP A   1     -30.667   1.006   3.844  0.00  0.00    +0.367 C 
ATOM     15  OD2 ASP A   1     -30.439   1.966   4.616  0.00  0.00    -0.246 OA
ATOM     16  OD1 ASP A   1     -31.834   0.628   3.567  0.00  0.00    -0.246 OA
ENDBRANCH  13  14
ENDBRANCH  10  13
ENDBRANCH   6  10
ENDBRANCH   5   7
BRANCH   5  17
ATOM     17  CB  LEU A   2     -33.478  -3.775   4.126  0.00  0.00    +0.029 C 
BRANCH  17  18
ATOM     18  CG  LEU A   2     -34.185  -3.036   5.275  0.00  0.00    +0.002 C 
ATOM     19  CD2 LEU A   2     -34.502  -3.973   6.453  0.00  0.00    +0.000 C 
ATOM     20  CD1 LEU A   2     -35.479  -2.431   4.721  0.00  0.00    +0.000 C 
ENDBRANCH  17  18
ENDBRANCH   5  17
ENDBRANCH   1   5
BRANCH   3  21
ATOM     21  CA  ARG A   3     -33.258  -0.078   0.671  0.00  0.00    +0.137 C 
BRANCH  21  22
ATOM     22  C   ARG A   3     -32.245   0.429  -0.375  0.00  0.00    +0.227 C 
ATOM     23  O   ARG A   3     -32.612   0.811  -1.484  0.00  0.00    -0.286 OA
ENDBRANCH  21  22
BRANCH  21  24
ATOM     24  CB  ARG A   3     -34.077   1.023   1.326  0.00  0.00    +0.031 C 
BRANCH  24  25
ATOM     25  CG  ARG A   3     -35.565   0.971   1.001  0.00  0.00    +0.045 C 
BRANCH  25  26
ATOM     26  CD  ARG A   3     -36.360   0.135   1.996  0.00  0.00    +0.174 C 
BRANCH  26  27
ATOM     27  NE  ARG A   3     -37.611  -0.348   1.407  0.00  0.00    -0.265 N 
ATOM     28  CZ  ARG A   3     -38.540  -1.030   2.071  0.00  0.00    +0.342 C 
ATOM     29  NH2 ARG A   3     -38.364  -1.306   3.355  0.00  0.00    -0.292 N 
ATOM     30 HH21 ARG A   3     -39.089  -1.839   3.876  0.00  0.00    +0.255 HD
ATOM     31 HH22 ARG A   3     -37.501  -0.990   3.841  0.00  0.00    +0.255 HD
ATOM     32  NH1 ARG A   3     -39.638  -1.458   1.450  0.00  0.00    -0.292 N 
ATOM     33 HH11 ARG A   3     -40.359  -1.991   1.977  0.00  0.00    +0.255 HD
ATOM     34 HH12 ARG A   3     -39.774  -1.260   0.438  0.00  0.00    +0.255 HD
ATOM     35  HE  ARG A   3     -37.785  -0.144   0.402  0.00  0.00    +0.259 HD
ENDBRANCH  26  27
ENDBRANCH  25  26
ENDBRANCH  24  25
ENDBRANCH  21  24
ENDBRANCH   3  21
TORSDOF 14
REMARK  Name = ../refined-set-2016/3v4t/3v4t_pocket.pdb
REMARK  251 active torsions:
REMARK  status: ('A' for Active; 'I' for Inactive)
REMARK    1  A    between atoms: _1  and  _3
REMARK    2  A    between atoms: _3  and  _4
REMARK    3  A    between atoms: _3  and  _6
REMARK    4  A    between atoms: _6  and  _7
REMARK    5  A    between atoms: _7  and  _8
REMARK    6  A    between atoms: _8  and  _9
REMARK    7  A    between atoms: _9  and  _10
REMARK    8  A    between atoms: _16  and  _17
REMARK    9  A    between atoms: _16  and  _19
REMARK   10  A    between atoms: _19  and  _20
REMARK   11  A    between atoms: _25  and  _27
REMARK   12  A    between atoms: _27  and  _28
REMARK   13  A    between atoms: _31  and  _33
REMARK   14  A    between atoms: _33  and  _34
REMARK   15  A    between atoms: _37  and  _39
REMARK   16  A    between atoms: _39  and  _40
REMARK   17  A    between atoms: _39  and  _42
REMARK   18  A    between atoms: _42  and  _43
REMARK   19  A    between atoms: _47  and  _48
REMARK   20  A    between atoms: _53  and  _55
REMARK   21  A    between atoms: _55  and  _56
REMARK   22  A    between atoms: _55  and  _58
REMARK   23  A    between atoms: _58  and  _59
REMARK   24  A    between atoms: _62  and  _64
REMARK   25  A    between atoms: _64  and  _65
REMARK   26  A    between atoms: _64  and  _67
REMARK   27  A    between atoms: _67  and  _68
REMARK   28  A    between atoms: _68  and  _69
REMARK   29  A    between atoms: _73  and  _74
REMARK   30  A    between atoms: _73  and  _76
REMARK   31  A    between atoms: _76  and  _77
REMARK   32  A    between atoms: _77  and  _78
REMARK   33  A    between atoms: _78  and  _79
REMARK   34  A    between atoms: _88  and  _90
REMARK   35  A    between atoms: _90  and  _91
REMARK   36  A    between atoms: _94  and  _96
REMARK   37  A    between atoms: _96  and  _97
REMARK   38  A    between atoms: _96  and  _99
REMARK   39  A    between atoms: _99  and  _100
REMARK   40  A    between atoms: _102  and  _104
REMARK   41  A    between atoms: _104  and  _105
REMARK   42  A    between atoms: _104  and  _107
REMARK   43  A    between atoms: _107  and  _108
REMARK   44  A    between atoms: _113  and  _114
REMARK   45  A    between atoms: _113  and  _116
REMARK   46  A    between atoms: _116  and  _117
REMARK   47  A    between atoms: _127  and  _129
REMARK   48  A    between atoms: _129  and  _130
REMARK   49  A    between atoms: _129  and  _132
REMARK   50  A    between atoms: _132  and  _133
REMARK   51  A    between atoms: _136  and  _138
REMARK   52  A    between atoms: _138  and  _139
REMARK   53  A    between atoms: _141  and  _143
REMARK   54  A    between atoms: _143  and  _144
REMARK   55  A    between atoms: _147  and  _149
REMARK   56  A    between atoms: _149  and  _150
REMARK   57  A    between atoms: _149  and  _152
REMARK   58  A    between atoms: _152  and  _153
REMARK   59  A    between atoms: _153  and  _154
REMARK   60  A    between atoms: _154  and  _155
REMARK   61  A    between atoms: _165  and  _166
REMARK   62  A    between atoms: _171  and  _173
REMARK   63  A    between atoms: _173  and  _174
REMARK   64  A    between atoms: _173  and  _176
REMARK   65  A    between atoms: _179  and  _181
REMARK   66  A    between atoms: _181  and  _182
REMARK   67  A    between atoms: _181  and  _184
REMARK   68  A    between atoms: _184  and  _185
REMARK   69  A    between atoms: _188  and  _190
REMARK   70  A    between atoms: _190  and  _191
REMARK   71  A    between atoms: _190  and  _193
REMARK   72  A    between atoms: _193  and  _194
REMARK   73  A    between atoms: _197  and  _199
REMARK   74  A    between atoms: _199  and  _200
REMARK   75  A    between atoms: _199  and  _202
REMARK   76  A    between atoms: _202  and  _203
REMARK   77  A    between atoms: _208  and  _210
REMARK   78  A    between atoms: _210  and  _211
REMARK   79  A    between atoms: _210  and  _213
REMARK   80  A    between atoms: _213  and  _214
REMARK   81  A    between atoms: _217  and  _219
REMARK   82  A    between atoms: _219  and  _220
REMARK   83  A    between atoms: _219  and  _222
REMARK   84  A    between atoms: _222  and  _223
REMARK   85  A    between atoms: _229  and  _231
REMARK   86  A    between atoms: _231  and  _232
REMARK   87  A    between atoms: _234  and  _236
REMARK   88  A    between atoms: _236  and  _237
REMARK   89  A    between atoms: _236  and  _239
REMARK   90  A    between atoms: _239  and  _240
REMARK   91  A    between atoms: _240  and  _241
REMARK   92  A    between atoms: _243  and  _245
REMARK   93  A    between atoms: _245  and  _246
REMARK   94  A    between atoms: _245  and  _248
REMARK   95  A    between atoms: _248  and  _249
REMARK   96  A    between atoms: _252  and  _254
REMARK   97  A    between atoms: _254  and  _255
REMARK   98  A    between atoms: _254  and  _257
REMARK   99  A    between atoms: _257  and  _258
REMARK  100  A    between atoms: _258  and  _259
REMARK  101  A    between atoms: _259  and  _260
REMARK  102  A    between atoms: _260  and  _261
REMARK  103  A    between atoms: _265  and  _267
REMARK  104  A    between atoms: _267  and  _268
REMARK  105  A    between atoms: _267  and  _270
REMARK  106  A    between atoms: _275  and  _276
REMARK  107  A    between atoms: _275  and  _278
REMARK  108  A    between atoms: _278  and  _279
REMARK  109  A    between atoms: _281  and  _283
REMARK  110  A    between atoms: _283  and  _284
REMARK  111  A    between atoms: _283  and  _286
REMARK  112  A    between atoms: _289  and  _291
REMARK  113  A    between atoms: _291  and  _292
REMARK  114  A    between atoms: _294  and  _296
REMARK  115  A    between atoms: _296  and  _297
REMARK  116  A    between atoms: _300  and  _302
REMARK  117  A    between atoms: _302  and  _303
REMARK  118  A    between atoms: _302  and  _305
REMARK  119  A    between atoms: _305  and  _306
REMARK  120  A    between atoms: _309  and  _311
REMARK  121  A    between atoms: _311  and  _312
REMARK  122  A    between atoms: _311  and  _314
REMARK  123  A    between atoms: _317  and  _319
REMARK  124  A    between atoms: _319  and  _320
REMARK  125  A    between atoms: _319  and  _322
REMARK  126  A    between atoms: _322  and  _323
REMARK  127  A    between atoms: _326  and  _328
REMARK  128  A    between atoms: _328  and  _329
REMARK  129  A    between atoms: _332  and  _334
REMARK  130  A    between atoms: _334  and  _335
REMARK  131  A    between atoms: _334  and  _337
REMARK  132  A    between atoms: _337  and  _338
REMARK  133  A    between atoms: _338  and  _339
REMARK  134  A    between atoms: _342  and  _344
REMARK  135  A    between atoms: _344  and  _345
REMARK  136  A    between atoms: _344  and  _347
REMARK  137  A    between atoms: _347  and  _348
REMARK  138  A    between atoms: _348  and  _349
REMARK  139  A    between atoms: _352  and  _354
REMARK  140  A    between atoms: _354  and  _355
REMARK  141  A    between atoms: _354  and  _357
REMARK  142  A    between atoms: _357  and  _358
REMARK  143  A    between atoms: _361  and  _363
REMARK  144  A    between atoms: _363  and  _364
REMARK  145  A    between atoms: _363  and  _366
REMARK  146  A    between atoms: _366  and  _367
REMARK  147  A    between atoms: _367  and  _368
REMARK  148  A    between atoms: _368  and  _369
REMARK  149  A    between atoms: _378  and  _380
REMARK  150  A    between atoms: _380  and  _381
REMARK  151  A    between atoms: _380  and  _383
REMARK  152  A    between atoms: _383  and  _384
REMARK  153  A    between atoms: _387  and  _389
REMARK  154  A    between atoms: _389  and  _390
REMARK  155  A    between atoms: _389  and  _392
REMARK  156  A    between atoms: _392  and  _393
REMARK  157  A    between atoms: _396  and  _398
REMARK  158  A    between atoms: _398  and  _399
REMARK  159  A    between atoms: _403  and  _404
REMARK  160  A    between atoms: _409  and  _411
REMARK  161  A    between atoms: _411  and  _412
REMARK  162  A    between atoms: _411  and  _414
REMARK  163  A    between atoms: _414  and  _415
REMARK  164  A    between atoms: _420  and  _422
REMARK  165  A    between atoms: _422  and  _423
REMARK  166  A    between atoms: _422  and  _425
REMARK  167  A    between atoms: _425  and  _426
REMARK  168  A    between atoms: _433  and  _434
REMARK  169  A    between atoms: _439  and  _441
REMARK  170  A    between atoms: _441  and  _442
REMARK  171  A    between atoms: _441  and  _444
REMARK  172  A    between atoms: _444  and  _445
REMARK  173  A    between atoms: _448  and  _450
REMARK  174  A    between atoms: _450  and  _451
REMARK  175  A    between atoms: _450  and  _453
REMARK  176  A    between atoms: _453  and  _454
REMARK  177  A    between atoms: _457  and  _459
REMARK  178  A    between atoms: _459  and  _460
REMARK  179  A    between atoms: _459  and  _462
REMARK  180  A    between atoms: _462  and  _463
REMARK  181  A    between atoms: _463  and  _464
REMARK  182  A    between atoms: _468  and  _469
REMARK  183  A    between atoms: _468  and  _471
REMARK  184  A    between atoms: _471  and  _472
REMARK  185  A    between atoms: _472  and  _473
REMARK  186  A    between atoms: _478  and  _480
REMARK  187  A    between atoms: _480  and  _481
REMARK  188  A    between atoms: _480  and  _483
REMARK  189  A    between atoms: _483  and  _484
REMARK  190  A    between atoms: _484  and  _485
REMARK  191  A    between atoms: _488  and  _490
REMARK  192  A    between atoms: _490  and  _491
REMARK  193  A    between atoms: _490  and  _493
REMARK  194  A    between atoms: _493  and  _494
REMARK  195  A    between atoms: _497  and  _499
REMARK  196  A    between atoms: _499  and  _500
REMARK  197  A    between atoms: _499  and  _502
REMARK  198  A    between atoms: _502  and  _503
REMARK  199  A    between atoms: _506  and  _508
REMARK  200  A    between atoms: _508  and  _509
REMARK  201  A    between atoms: _508  and  _511
REMARK  202  A    between atoms: _511  and  _512
REMARK  203  A    between atoms: _520  and  _521
REMARK  204  A    between atoms: _520  and  _523
REMARK  205  A    between atoms: _523  and  _524
REMARK  206  A    between atoms: _524  and  _525
REMARK  207  A    between atoms: _528  and  _530
REMARK  208  A    between atoms: _530  and  _531
REMARK  209  A    between atoms: _530  and  _533
REMARK  210  A    between atoms: _533  and  _534
REMARK  211  A    between atoms: _539  and  _541
REMARK  212  A    between atoms: _541  and  _542
REMARK  213  A    between atoms: _541  and  _544
REMARK  214  A    between atoms: _544  and  _545
REMARK  215  A    between atoms: _545  and  _546
REMARK  216  A    between atoms: _546  and  _547
REMARK  217  A    between atoms: _556  and  _558
REMARK  218  A    between atoms: _558  and  _559
REMARK  219  A    between atoms: _558  and  _561
REMARK  220  A    between atoms: _561  and  _562
REMARK  221  A    between atoms: _565  and  _567
REMARK  222  A    between atoms: _567  and  _568
REMARK  223  A    between atoms: _567  and  _570
REMARK  224  A    between atoms: _570  and  _571
REMARK  225  A    between atoms: _574  and  _576
REMARK  226  A    between atoms: _576  and  _577
REMARK  227  A    between atoms: _576  and  _579
REMARK  228  A    between atoms: _579  and  _580
REMARK  229  A    between atoms: _580  and  _581
REMARK  230  A    between atoms: _581  and  _582
REMARK  231  A    between atoms: _591  and  _593
REMARK  232  A    between atoms: _593  and  _594
REMARK  233  A    between atoms: _593  and  _596
REMARK  234  A    between atoms: _596  and  _597
REMARK  235  A    between atoms: _597  and  _598
REMARK  236  A    between atoms: _598  and  _599
REMARK  237  A    between atoms: _608  and  _610
REMARK  238  A    between atoms: _610  and  _611
REMARK  239  A    between atoms: _610  and  _613
REMARK  240  A    between atoms: _613  and  _614
REMARK  241  A    between atoms: _614  and  _615
REMARK  242  A    between atoms: _615  and  _616
REMARK  243  A    between atoms: _625  and  _627
REMARK  244  A    between atoms: _627  and  _628
REMARK  245  A    between atoms: _627  and  _630
REMARK  246  A    between atoms: _630  and  _631
REMARK  247  A    between atoms: _634  and  _636
REMARK  248  A    between atoms: _636  and  _637
REMARK  249  A    between atoms: _636  and  _639
REMARK  250  A    between atoms: _639  and  _640
REMARK  251  A    between atoms: _640  and  _641
REMARK                            x       y       z     vdW  Elec       q    Type
REMARK                         _______ _______ _______ _____ _____    ______ ____
ROOT
ATOM      1  NE  ARG A   1     -33.483  -7.517   7.708  0.00  0.00    -0.265 N 
ATOM      2  CZ  ARG A   1     -32.855  -6.775   8.615  0.00  0.00    +0.342 C 
ATOM      3  NH2 ARG A   1     -33.563  -6.045   9.478  0.00  0.00    -0.292 N 
ATOM      4 HH21 ARG A   1     -33.076  -5.463  10.189  0.00  0.00    +0.255 HD
ATOM      5 HH22 ARG A   1     -34.602  -6.058   9.440  0.00  0.00    +0.255 HD
ATOM      6  NH1 ARG A   1     -31.522  -6.752   8.651  0.00  0.00    -0.292 N 
ATOM      7 HH11 ARG A   1     -31.031  -6.172   9.361  0.00  0.00    +0.255 HD
ATOM      8 HH12 ARG A   1     -30.974  -7.315   7.970  0.00  0.00    +0.255 HD
ATOM      9  HE  ARG A   1     -34.523  -7.511   7.715  0.00  0.00    +0.259 HD
ENDROOT
BRANCH   1  10
ATOM     10  CD  ARG A   1     -32.818  -8.336   6.707  0.00  0.00    +0.174 C 
BRANCH  10  11
ATOM     11  CG  ARG A   1     -33.838  -8.941   5.780  0.00  0.00    +0.045 C 
BRANCH  11  12
ATOM     12  CB  ARG A   1     -34.842  -7.897   5.362  0.00  0.00    +0.029 C 
BRANCH  12  13
ATOM     13  CA  ARG A   1     -35.838  -8.390   4.324  0.00  0.00    +0.133 C 
BRANCH  13  14
ATOM     14  N   ARG A   1     -35.215  -8.884   3.114  0.00  0.00    -0.239 NA
ATOM     15  H   ARG A   1     -34.283  -8.518   2.833  0.00  0.00    +0.142 HD
ENDBRANCH  13  14
BRANCH  13  16
ATOM     16  C   ARG A   1     -36.965  -7.423   4.047  0.00  0.00    +0.224 C 
ATOM     17  O   ARG A   1     -37.975  -7.430   4.740  0.00  0.00    -0.287 OA
ENDBRANCH  13  16
ENDBRANCH  12  13
ENDBRANCH  11  12
ENDBRANCH  10  11
ENDBRANCH   1  10
TORSDOF 6
REMARK  Name = ../refined-set-2016/3v4t/3v4t_pocket.pdb
REMARK  251 active torsions:
REMARK  status: ('A' for Active; 'I' for Inactive)
REMARK    1  A    between atoms: _1  and  _3
REMARK    2  A    between atoms: _3  and  _4
REMARK    3  A    between atoms: _3  and  _6
REMARK    4  A    between atoms: _6  and  _7
REMARK    5  A    between atoms: _7  and  _8
REMARK    6  A    between atoms: _8  and  _9
REMARK    7  A    between atoms: _9  and  _10
REMARK    8  A    between atoms: _16  and  _17
REMARK    9  A    between atoms: _16  and  _19
REMARK   10  A    between atoms: _19  and  _20
REMARK   11  A    between atoms: _25  and  _27
REMARK   12  A    between atoms: _27  and  _28
REMARK   13  A    between atoms: _31  and  _33
REMARK   14  A    between atoms: _33  and  _34
REMARK   15  A    between atoms: _37  and  _39
REMARK   16  A    between atoms: _39  and  _40
REMARK   17  A    between atoms: _39  and  _42
REMARK   18  A    between atoms: _42  and  _43
REMARK   19  A    between atoms: _47  and  _48
REMARK   20  A    between atoms: _53  and  _55
REMARK   21  A    between atoms: _55  and  _56
REMARK   22  A    between atoms: _55  and  _58
REMARK   23  A    between atoms: _58  and  _59
REMARK   24  A    between atoms: _62  and  _64
REMARK   25  A    between atoms: _64  and  _65
REMARK   26  A    between atoms: _64  and  _67
REMARK   27  A    between atoms: _67  and  _68
REMARK   28  A    between atoms: _68  and  _69
REMARK   29  A    between atoms: _73  and  _74
REMARK   30  A    between atoms: _73  and  _76
REMARK   31  A    between atoms: _76  and  _77
REMARK   32  A    between atoms: _77  and  _78
REMARK   33  A    between atoms: _78  and  _79
REMARK   34  A    between atoms: _88  and  _90
REMARK   35  A    between atoms: _90  and  _91
REMARK   36  A    between atoms: _94  and  _96
REMARK   37  A    between atoms: _96  and  _97
REMARK   38  A    between atoms: _96  and  _99
REMARK   39  A    between atoms: _99  and  _100
REMARK   40  A    between atoms: _102  and  _104
REMARK   41  A    between atoms: _104  and  _105
REMARK   42  A    between atoms: _104  and  _107
REMARK   43  A    between atoms: _107  and  _108
REMARK   44  A    between atoms: _113  and  _114
REMARK   45  A    between atoms: _113  and  _116
REMARK   46  A    between atoms: _116  and  _117
REMARK   47  A    between atoms: _127  and  _129
REMARK   48  A    between atoms: _129  and  _130
REMARK   49  A    between atoms: _129  and  _132
REMARK   50  A    between atoms: _132  and  _133
REMARK   51  A    between atoms: _136  and  _138
REMARK   52  A    between atoms: _138  and  _139
REMARK   53  A    between atoms: _141  and  _143
REMARK   54  A    between atoms: _143  and  _144
REMARK   55  A    between atoms: _147  and  _149
REMARK   56  A    between atoms: _149  and  _150
REMARK   57  A    between atoms: _149  and  _152
REMARK   58  A    between atoms: _152  and  _153
REMARK   59  A    between atoms: _153  and  _154
REMARK   60  A    between atoms: _154  and  _155
REMARK   61  A    between atoms: _165  and  _166
REMARK   62  A    between atoms: _171  and  _173
REMARK   63  A    between atoms: _173  and  _174
REMARK   64  A    between atoms: _173  and  _176
REMARK   65  A    between atoms: _179  and  _181
REMARK   66  A    between atoms: _181  and  _182
REMARK   67  A    between atoms: _181  and  _184
REMARK   68  A    between atoms: _184  and  _185
REMARK   69  A    between atoms: _188  and  _190
REMARK   70  A    between atoms: _190  and  _191
REMARK   71  A    between atoms: _190  and  _193
REMARK   72  A    between atoms: _193  and  _194
REMARK   73  A    between atoms: _197  and  _199
REMARK   74  A    between atoms: _199  and  _200
REMARK   75  A    between atoms: _199  and  _202
REMARK   76  A    between atoms: _202  and  _203
REMARK   77  A    between atoms: _208  and  _210
REMARK   78  A    between atoms: _210  and  _211
REMARK   79  A    between atoms: _210  and  _213
REMARK   80  A    between atoms: _213  and  _214
REMARK   81  A    between atoms: _217  and  _219
REMARK   82  A    between atoms: _219  and  _220
REMARK   83  A    between atoms: _219  and  _222
REMARK   84  A    between atoms: _222  and  _223
REMARK   85  A    between atoms: _229  and  _231
REMARK   86  A    between atoms: _231  and  _232
REMARK   87  A    between atoms: _234  and  _236
REMARK   88  A    between atoms: _236  and  _237
REMARK   89  A    between atoms: _236  and  _239
REMARK   90  A    between atoms: _239  and  _240
REMARK   91  A    between atoms: _240  and  _241
REMARK   92  A    between atoms: _243  and  _245
REMARK   93  A    between atoms: _245  and  _246
REMARK   94  A    between atoms: _245  and  _248
REMARK   95  A    between atoms: _248  and  _249
REMARK   96  A    between atoms: _252  and  _254
REMARK   97  A    between atoms: _254  and  _255
REMARK   98  A    between atoms: _254  and  _257
REMARK   99  A    between atoms: _257  and  _258
REMARK  100  A    between atoms: _258  and  _259
REMARK  101  A    between atoms: _259  and  _260
REMARK  102  A    between atoms: _260  and  _261
REMARK  103  A    between atoms: _265  and  _267
REMARK  104  A    between atoms: _267  and  _268
REMARK  105  A    between atoms: _267  and  _270
REMARK  106  A    between atoms: _275  and  _276
REMARK  107  A    between atoms: _275  and  _278
REMARK  108  A    between atoms: _278  and  _279
REMARK  109  A    between atoms: _281  and  _283
REMARK  110  A    between atoms: _283  and  _284
REMARK  111  A    between atoms: _283  and  _286
REMARK  112  A    between atoms: _289  and  _291
REMARK  113  A    between atoms: _291  and  _292
REMARK  114  A    between atoms: _294  and  _296
REMARK  115  A    between atoms: _296  and  _297
REMARK  116  A    between atoms: _300  and  _302
REMARK  117  A    between atoms: _302  and  _303
REMARK  118  A    between atoms: _302  and  _305
REMARK  119  A    between atoms: _305  and  _306
REMARK  120  A    between atoms: _309  and  _311
REMARK  121  A    between atoms: _311  and  _312
REMARK  122  A    between atoms: _311  and  _314
REMARK  123  A    between atoms: _317  and  _319
REMARK  124  A    between atoms: _319  and  _320
REMARK  125  A    between atoms: _319  and  _322
REMARK  126  A    between atoms: _322  and  _323
REMARK  127  A    between atoms: _326  and  _328
REMARK  128  A    between atoms: _328  and  _329
REMARK  129  A    between atoms: _332  and  _334
REMARK  130  A    between atoms: _334  and  _335
REMARK  131  A    between atoms: _334  and  _337
REMARK  132  A    between atoms: _337  and  _338
REMARK  133  A    between atoms: _338  and  _339
REMARK  134  A    between atoms: _342  and  _344
REMARK  135  A    between atoms: _344  and  _345
REMARK  136  A    between atoms: _344  and  _347
REMARK  137  A    between atoms: _347  and  _348
REMARK  138  A    between atoms: _348  and  _349
REMARK  139  A    between atoms: _352  and  _354
REMARK  140  A    between atoms: _354  and  _355
REMARK  141  A    between atoms: _354  and  _357
REMARK  142  A    between atoms: _357  and  _358
REMARK  143  A    between atoms: _361  and  _363
REMARK  144  A    between atoms: _363  and  _364
REMARK  145  A    between atoms: _363  and  _366
REMARK  146  A    between atoms: _366  and  _367
REMARK  147  A    between atoms: _367  and  _368
REMARK  148  A    between atoms: _368  and  _369
REMARK  149  A    between atoms: _378  and  _380
REMARK  150  A    between atoms: _380  and  _381
REMARK  151  A    between atoms: _380  and  _383
REMARK  152  A    between atoms: _383  and  _384
REMARK  153  A    between atoms: _387  and  _389
REMARK  154  A    between atoms: _389  and  _390
REMARK  155  A    between atoms: _389  and  _392
REMARK  156  A    between atoms: _392  and  _393
REMARK  157  A    between atoms: _396  and  _398
REMARK  158  A    between atoms: _398  and  _399
REMARK  159  A    between atoms: _403  and  _404
REMARK  160  A    between atoms: _409  and  _411
REMARK  161  A    between atoms: _411  and  _412
REMARK  162  A    between atoms: _411  and  _414
REMARK  163  A    between atoms: _414  and  _415
REMARK  164  A    between atoms: _420  and  _422
REMARK  165  A    between atoms: _422  and  _423
REMARK  166  A    between atoms: _422  and  _425
REMARK  167  A    between atoms: _425  and  _426
REMARK  168  A    between atoms: _433  and  _434
REMARK  169  A    between atoms: _439  and  _441
REMARK  170  A    between atoms: _441  and  _442
REMARK  171  A    between atoms: _441  and  _444
REMARK  172  A    between atoms: _444  and  _445
REMARK  173  A    between atoms: _448  and  _450
REMARK  174  A    between atoms: _450  and  _451
REMARK  175  A    between atoms: _450  and  _453
REMARK  176  A    between atoms: _453  and  _454
REMARK  177  A    between atoms: _457  and  _459
REMARK  178  A    between atoms: _459  and  _460
REMARK  179  A    between atoms: _459  and  _462
REMARK  180  A    between atoms: _462  and  _463
REMARK  181  A    between atoms: _463  and  _464
REMARK  182  A    between atoms: _468  and  _469
REMARK  183  A    between atoms: _468  and  _471
REMARK  184  A    between atoms: _471  and  _472
REMARK  185  A    between atoms: _472  and  _473
REMARK  186  A    between atoms: _478  and  _480
REMARK  187  A    between atoms: _480  and  _481
REMARK  188  A    between atoms: _480  and  _483
REMARK  189  A    between atoms: _483  and  _484
REMARK  190  A    between atoms: _484  and  _485
REMARK  191  A    between atoms: _488  and  _490
REMARK  192  A    between atoms: _490  and  _491
REMARK  193  A    between atoms: _490  and  _493
REMARK  194  A    between atoms: _493  and  _494
REMARK  195  A    between atoms: _497  and  _499
REMARK  196  A    between atoms: _499  and  _500
REMARK  197  A    between atoms: _499  and  _502
REMARK  198  A    between atoms: _502  and  _503
REMARK  199  A    between atoms: _506  and  _508
REMARK  200  A    between atoms: _508  and  _509
REMARK  201  A    between atoms: _508  and  _511
REMARK  202  A    between atoms: _511  and  _512
REMARK  203  A    between atoms: _520  and  _521
REMARK  204  A    between atoms: _520  and  _523
REMARK  205  A    between atoms: _523  and  _524
REMARK  206  A    between atoms: _524  and  _525
REMARK  207  A    between atoms: _528  and  _530
REMARK  208  A    between atoms: _530  and  _531
REMARK  209  A    between atoms: _530  and  _533
REMARK  210  A    between atoms: _533  and  _534
REMARK  211  A    between atoms: _539  and  _541
REMARK  212  A    between atoms: _541  and  _542
REMARK  213  A    between atoms: _541  and  _544
REMARK  214  A    between atoms: _544  and  _545
REMARK  215  A    between atoms: _545  and  _546
REMARK  216  A    between atoms: _546  and  _547
REMARK  217  A    between atoms: _556  and  _558
REMARK  218  A    between atoms: _558  and  _559
REMARK  219  A    between atoms: _558  and  _561
REMARK  220  A    between atoms: _561  and  _562
REMARK  221  A    between atoms: _565  and  _567
REMARK  222  A    between atoms: _567  and  _568
REMARK  223  A    between atoms: _567  and  _570
REMARK  224  A    between atoms: _570  and  _571
REMARK  225  A    between atoms: _574  and  _576
REMARK  226  A    between atoms: _576  and  _577
REMARK  227  A    between atoms: _576  and  _579
REMARK  228  A    between atoms: _579  and  _580
REMARK  229  A    between atoms: _580  and  _581
REMARK  230  A    between atoms: _581  and  _582
REMARK  231  A    between atoms: _591  and  _593
REMARK  232  A    between atoms: _593  and  _594
REMARK  233  A    between atoms: _593  and  _596
REMARK  234  A    between atoms: _596  and  _597
REMARK  235  A    between atoms: _597  and  _598
REMARK  236  A    between atoms: _598  and  _599
REMARK  237  A    between atoms: _608  and  _610
REMARK  238  A    between atoms: _610  and  _611
REMARK  239  A    between atoms: _610  and  _613
REMARK  240  A    between atoms: _613  and  _614
REMARK  241  A    between atoms: _614  and  _615
REMARK  242  A    between atoms: _615  and  _616
REMARK  243  A    between atoms: _625  and  _627
REMARK  244  A    between atoms: _627  and  _628
REMARK  245  A    between atoms: _627  and  _630
REMARK  246  A    between atoms: _630  and  _631
REMARK  247  A    between atoms: _634  and  _636
REMARK  248  A    between atoms: _636  and  _637
REMARK  249  A    between atoms: _636  and  _639
REMARK  250  A    between atoms: _639  and  _640
REMARK  251  A    between atoms: _640  and  _641
REMARK                            x       y       z     vdW  Elec       q    Type
REMARK                         _______ _______ _______ _____ _____    ______ ____
ROOT
ATOM      1  NE  ARG A   1     -34.392  16.880  16.173  0.00  0.00    -0.265 N 
ATOM      2  HE  ARG A   1     -33.382  16.770  15.952  0.00  0.00    +0.259 HD
ATOM      3  CZ  ARG A   1     -35.262  16.801  15.165  0.00  0.00    +0.342 C 
ATOM      4  NH2 ARG A   1     -36.566  16.936  15.394  0.00  0.00    -0.292 N 
ATOM      5 HH21 ARG A   1     -36.909  17.104  16.361  0.00  0.00    +0.255 HD
ATOM      6 HH22 ARG A   1     -37.242  16.874  14.606  0.00  0.00    +0.255 HD
ATOM      7  NH1 ARG A   1     -34.830  16.585  13.929  0.00  0.00    -0.292 N 
ATOM      8 HH11 ARG A   1     -33.812  16.477  13.745  0.00  0.00    +0.255 HD
ATOM      9 HH12 ARG A   1     -35.509  16.524  13.144  0.00  0.00    +0.255 HD
ENDROOT
BRANCH   1  10
ATOM     10  CD  ARG A   1     -34.766  17.112  17.570  0.00  0.00    +0.174 C 
BRANCH  10  11
ATOM     11  CG  ARG A   1     -35.309  18.533  17.797  0.00  0.00    +0.045 C 
BRANCH  11  12
ATOM     12  CB  ARG A   1     -35.551  18.797  19.276  0.00  0.00    +0.029 C 
BRANCH  12  13
ATOM     13  CA  ARG A   1     -35.653  20.268  19.658  0.00  0.00    +0.133 C 
BRANCH  13  14
ATOM     14  N   ARG A   1     -35.784  20.466  21.081  0.00  0.00    -0.239 NA
ATOM     15  H   ARG A   1     -36.723  20.358  21.514  0.00  0.00    +0.142 HD
ENDBRANCH  13  14
BRANCH  13  16
ATOM     16  C   ARG A   1     -36.770  21.032  18.950  0.00  0.00    +0.224 C 
ATOM     17  O   ARG A   1     -37.962  20.740  19.147  0.00  0.00    -0.287 OA
ENDBRANCH  13  16
ENDBRANCH  12  13
ENDBRANCH  11  12
ENDBRANCH  10  11
ENDBRANCH   1  10
TORSDOF 6
REMARK  Name = ../refined-set-2016/3v4t/3v4t_pocket.pdb
REMARK  251 active torsions:
REMARK  status: ('A' for Active; 'I' for Inactive)
REMARK    1  A    between atoms: _1  and  _3
REMARK    2  A    between atoms: _3  and  _4
REMARK    3  A    between atoms: _3  and  _6
REMARK    4  A    between atoms: _6  and  _7
REMARK    5  A    between atoms: _7  and  _8
REMARK    6  A    between atoms: _8  and  _9
REMARK    7  A    between atoms: _9  and  _10
REMARK    8  A    between atoms: _16  and  _17
REMARK    9  A    between atoms: _16  and  _19
REMARK   10  A    between atoms: _19  and  _20
REMARK   11  A    between atoms: _25  and  _27
REMARK   12  A    between atoms: _27  and  _28
REMARK   13  A    between atoms: _31  and  _33
REMARK   14  A    between atoms: _33  and  _34
REMARK   15  A    between atoms: _37  and  _39
REMARK   16  A    between atoms: _39  and  _40
REMARK   17  A    between atoms: _39  and  _42
REMARK   18  A    between atoms: _42  and  _43
REMARK   19  A    between atoms: _47  and  _48
REMARK   20  A    between atoms: _53  and  _55
REMARK   21  A    between atoms: _55  and  _56
REMARK   22  A    between atoms: _55  and  _58
REMARK   23  A    between atoms: _58  and  _59
REMARK   24  A    between atoms: _62  and  _64
REMARK   25  A    between atoms: _64  and  _65
REMARK   26  A    between atoms: _64  and  _67
REMARK   27  A    between atoms: _67  and  _68
REMARK   28  A    between atoms: _68  and  _69
REMARK   29  A    between atoms: _73  and  _74
REMARK   30  A    between atoms: _73  and  _76
REMARK   31  A    between atoms: _76  and  _77
REMARK   32  A    between atoms: _77  and  _78
REMARK   33  A    between atoms: _78  and  _79
REMARK   34  A    between atoms: _88  and  _90
REMARK   35  A    between atoms: _90  and  _91
REMARK   36  A    between atoms: _94  and  _96
REMARK   37  A    between atoms: _96  and  _97
REMARK   38  A    between atoms: _96  and  _99
REMARK   39  A    between atoms: _99  and  _100
REMARK   40  A    between atoms: _102  and  _104
REMARK   41  A    between atoms: _104  and  _105
REMARK   42  A    between atoms: _104  and  _107
REMARK   43  A    between atoms: _107  and  _108
REMARK   44  A    between atoms: _113  and  _114
REMARK   45  A    between atoms: _113  and  _116
REMARK   46  A    between atoms: _116  and  _117
REMARK   47  A    between atoms: _127  and  _129
REMARK   48  A    between atoms: _129  and  _130
REMARK   49  A    between atoms: _129  and  _132
REMARK   50  A    between atoms: _132  and  _133
REMARK   51  A    between atoms: _136  and  _138
REMARK   52  A    between atoms: _138  and  _139
REMARK   53  A    between atoms: _141  and  _143
REMARK   54  A    between atoms: _143  and  _144
REMARK   55  A    between atoms: _147  and  _149
REMARK   56  A    between atoms: _149  and  _150
REMARK   57  A    between atoms: _149  and  _152
REMARK   58  A    between atoms: _152  and  _153
REMARK   59  A    between atoms: _153  and  _154
REMARK   60  A    between atoms: _154  and  _155
REMARK   61  A    between atoms: _165  and  _166
REMARK   62  A    between atoms: _171  and  _173
REMARK   63  A    between atoms: _173  and  _174
REMARK   64  A    between atoms: _173  and  _176
REMARK   65  A    between atoms: _179  and  _181
REMARK   66  A    between atoms: _181  and  _182
REMARK   67  A    between atoms: _181  and  _184
REMARK   68  A    between atoms: _184  and  _185
REMARK   69  A    between atoms: _188  and  _190
REMARK   70  A    between atoms: _190  and  _191
REMARK   71  A    between atoms: _190  and  _193
REMARK   72  A    between atoms: _193  and  _194
REMARK   73  A    between atoms: _197  and  _199
REMARK   74  A    between atoms: _199  and  _200
REMARK   75  A    between atoms: _199  and  _202
REMARK   76  A    between atoms: _202  and  _203
REMARK   77  A    between atoms: _208  and  _210
REMARK   78  A    between atoms: _210  and  _211
REMARK   79  A    between atoms: _210  and  _213
REMARK   80  A    between atoms: _213  and  _214
REMARK   81  A    between atoms: _217  and  _219
REMARK   82  A    between atoms: _219  and  _220
REMARK   83  A    between atoms: _219  and  _222
REMARK   84  A    between atoms: _222  and  _223
REMARK   85  A    between atoms: _229  and  _231
REMARK   86  A    between atoms: _231  and  _232
REMARK   87  A    between atoms: _234  and  _236
REMARK   88  A    between atoms: _236  and  _237
REMARK   89  A    between atoms: _236  and  _239
REMARK   90  A    between atoms: _239  and  _240
REMARK   91  A    between atoms: _240  and  _241
REMARK   92  A    between atoms: _243  and  _245
REMARK   93  A    between atoms: _245  and  _246
REMARK   94  A    between atoms: _245  and  _248
REMARK   95  A    between atoms: _248  and  _249
REMARK   96  A    between atoms: _252  and  _254
REMARK   97  A    between atoms: _254  and  _255
REMARK   98  A    between atoms: _254  and  _257
REMARK   99  A    between atoms: _257  and  _258
REMARK  100  A    between atoms: _258  and  _259
REMARK  101  A    between atoms: _259  and  _260
REMARK  102  A    between atoms: _260  and  _261
REMARK  103  A    between atoms: _265  and  _267
REMARK  104  A    between atoms: _267  and  _268
REMARK  105  A    between atoms: _267  and  _270
REMARK  106  A    between atoms: _275  and  _276
REMARK  107  A    between atoms: _275  and  _278
REMARK  108  A    between atoms: _278  and  _279
REMARK  109  A    between atoms: _281  and  _283
REMARK  110  A    between atoms: _283  and  _284
REMARK  111  A    between atoms: _283  and  _286
REMARK  112  A    between atoms: _289  and  _291
REMARK  113  A    between atoms: _291  and  _292
REMARK  114  A    between atoms: _294  and  _296
REMARK  115  A    between atoms: _296  and  _297
REMARK  116  A    between atoms: _300  and  _302
REMARK  117  A    between atoms: _302  and  _303
REMARK  118  A    between atoms: _302  and  _305
REMARK  119  A    between atoms: _305  and  _306
REMARK  120  A    between atoms: _309  and  _311
REMARK  121  A    between atoms: _311  and  _312
REMARK  122  A    between atoms: _311  and  _314
REMARK  123  A    between atoms: _317  and  _319
REMARK  124  A    between atoms: _319  and  _320
REMARK  125  A    between atoms: _319  and  _322
REMARK  126  A    between atoms: _322  and  _323
REMARK  127  A    between atoms: _326  and  _328
REMARK  128  A    between atoms: _328  and  _329
REMARK  129  A    between atoms: _332  and  _334
REMARK  130  A    between atoms: _334  and  _335
REMARK  131  A    between atoms: _334  and  _337
REMARK  132  A    between atoms: _337  and  _338
REMARK  133  A    between atoms: _338  and  _339
REMARK  134  A    between atoms: _342  and  _344
REMARK  135  A    between atoms: _344  and  _345
REMARK  136  A    between atoms: _344  and  _347
REMARK  137  A    between atoms: _347  and  _348
REMARK  138  A    between atoms: _348  and  _349
REMARK  139  A    between atoms: _352  and  _354
REMARK  140  A    between atoms: _354  and  _355
REMARK  141  A    between atoms: _354  and  _357
REMARK  142  A    between atoms: _357  and  _358
REMARK  143  A    between atoms: _361  and  _363
REMARK  144  A    between atoms: _363  and  _364
REMARK  145  A    between atoms: _363  and  _366
REMARK  146  A    between atoms: _366  and  _367
REMARK  147  A    between atoms: _367  and  _368
REMARK  148  A    between atoms: _368  and  _369
REMARK  149  A    between atoms: _378  and  _380
REMARK  150  A    between atoms: _380  and  _381
REMARK  151  A    between atoms: _380  and  _383
REMARK  152  A    between atoms: _383  and  _384
REMARK  153  A    between atoms: _387  and  _389
REMARK  154  A    between atoms: _389  and  _390
REMARK  155  A    between atoms: _389  and  _392
REMARK  156  A    between atoms: _392  and  _393
REMARK  157  A    between atoms: _396  and  _398
REMARK  158  A    between atoms: _398  and  _399
REMARK  159  A    between atoms: _403  and  _404
REMARK  160  A    between atoms: _409  and  _411
REMARK  161  A    between atoms: _411  and  _412
REMARK  162  A    between atoms: _411  and  _414
REMARK  163  A    between atoms: _414  and  _415
REMARK  164  A    between atoms: _420  and  _422
REMARK  165  A    between atoms: _422  and  _423
REMARK  166  A    between atoms: _422  and  _425
REMARK  167  A    between atoms: _425  and  _426
REMARK  168  A    between atoms: _433  and  _434
REMARK  169  A    between atoms: _439  and  _441
REMARK  170  A    between atoms: _441  and  _442
REMARK  171  A    between atoms: _441  and  _444
REMARK  172  A    between atoms: _444  and  _445
REMARK  173  A    between atoms: _448  and  _450
REMARK  174  A    between atoms: _450  and  _451
REMARK  175  A    between atoms: _450  and  _453
REMARK  176  A    between atoms: _453  and  _454
REMARK  177  A    between atoms: _457  and  _459
REMARK  178  A    between atoms: _459  and  _460
REMARK  179  A    between atoms: _459  and  _462
REMARK  180  A    between atoms: _462  and  _463
REMARK  181  A    between atoms: _463  and  _464
REMARK  182  A    between atoms: _468  and  _469
REMARK  183  A    between atoms: _468  and  _471
REMARK  184  A    between atoms: _471  and  _472
REMARK  185  A    between atoms: _472  and  _473
REMARK  186  A    between atoms: _478  and  _480
REMARK  187  A    between atoms: _480  and  _481
REMARK  188  A    between atoms: _480  and  _483
REMARK  189  A    between atoms: _483  and  _484
REMARK  190  A    between atoms: _484  and  _485
REMARK  191  A    between atoms: _488  and  _490
REMARK  192  A    between atoms: _490  and  _491
REMARK  193  A    between atoms: _490  and  _493
REMARK  194  A    between atoms: _493  and  _494
REMARK  195  A    between atoms: _497  and  _499
REMARK  196  A    between atoms: _499  and  _500
REMARK  197  A    between atoms: _499  and  _502
REMARK  198  A    between atoms: _502  and  _503
REMARK  199  A    between atoms: _506  and  _508
REMARK  200  A    between atoms: _508  and  _509
REMARK  201  A    between atoms: _508  and  _511
REMARK  202  A    between atoms: _511  and  _512
REMARK  203  A    between atoms: _520  and  _521
REMARK  204  A    between atoms: _520  and  _523
REMARK  205  A    between atoms: _523  and  _524
REMARK  206  A    between atoms: _524  and  _525
REMARK  207  A    between atoms: _528  and  _530
REMARK  208  A    between atoms: _530  and  _531
REMARK  209  A    between atoms: _530  and  _533
REMARK  210  A    between atoms: _533  and  _534
REMARK  211  A    between atoms: _539  and  _541
REMARK  212  A    between atoms: _541  and  _542
REMARK  213  A    between atoms: _541  and  _544
REMARK  214  A    between atoms: _544  and  _545
REMARK  215  A    between atoms: _545  and  _546
REMARK  216  A    between atoms: _546  and  _547
REMARK  217  A    between atoms: _556  and  _558
REMARK  218  A    between atoms: _558  and  _559
REMARK  219  A    between atoms: _558  and  _561
REMARK  220  A    between atoms: _561  and  _562
REMARK  221  A    between atoms: _565  and  _567
REMARK  222  A    between atoms: _567  and  _568
REMARK  223  A    between atoms: _567  and  _570
REMARK  224  A    between atoms: _570  and  _571
REMARK  225  A    between atoms: _574  and  _576
REMARK  226  A    between atoms: _576  and  _577
REMARK  227  A    between atoms: _576  and  _579
REMARK  228  A    between atoms: _579  and  _580
REMARK  229  A    between atoms: _580  and  _581
REMARK  230  A    between atoms: _581  and  _582
REMARK  231  A    between atoms: _591  and  _593
REMARK  232  A    between atoms: _593  and  _594
REMARK  233  A    between atoms: _593  and  _596
REMARK  234  A    between atoms: _596  and  _597
REMARK  235  A    between atoms: _597  and  _598
REMARK  236  A    between atoms: _598  and  _599
REMARK  237  A    between atoms: _608  and  _610
REMARK  238  A    between atoms: _610  and  _611
REMARK  239  A    between atoms: _610  and  _613
REMARK  240  A    between atoms: _613  and  _614
REMARK  241  A    between atoms: _614  and  _615
REMARK  242  A    between atoms: _615  and  _616
REMARK  243  A    between atoms: _625  and  _627
REMARK  244  A    between atoms: _627  and  _628
REMARK  245  A    between atoms: _627  and  _630
REMARK  246  A    between atoms: _630  and  _631
REMARK  247  A    between atoms: _634  and  _636
REMARK  248  A    between atoms: _636  and  _637
REMARK  249  A    between atoms: _636  and  _639
REMARK  250  A    between atoms: _639  and  _640
REMARK  251  A    between atoms: _640  and  _641
REMARK                            x       y       z     vdW  Elec       q    Type
REMARK                         _______ _______ _______ _____ _____    ______ ____
ROOT
ATOM      1  C   ILE A   1     -26.420  13.277  18.095  0.00  0.00    +0.238 C 
ATOM      2  N   GLU A   2     -25.769  14.424  17.935  0.00  0.00    -0.298 N 
ATOM      3  H   GLU A   2     -24.848  14.536  18.404  0.00  0.00    +0.150 HD
ATOM      4  O   ILE A   1     -27.535  13.051  17.623  0.00  0.00    -0.274 OA
ENDROOT
BRANCH   1   5
ATOM      5  CA  ILE A   1     -25.701  12.242  18.948  0.00  0.00    +0.145 C 
BRANCH   5   6
ATOM      6  N   ILE A   1     -26.487  12.008  20.145  0.00  0.00    -0.238 NA
ATOM      7  H   ILE A   1     -27.404  11.523  20.068  0.00  0.00    +0.142 HD
ENDBRANCH   5   6
BRANCH   5   8
ATOM      8  CB  ILE A   1     -25.487  10.922  18.139  0.00  0.00    +0.025 C 
ATOM      9  CG2 ILE A   1     -24.887  11.218  16.753  0.00  0.00    +0.002 C 
BRANCH   8  10
ATOM     10  CG1 ILE A   1     -24.579   9.982  18.938  0.00  0.00    +0.002 C 
ATOM     11  CD1 ILE A   1     -24.319   8.617  18.277  0.00  0.00    +0.000 C 
ENDBRANCH   8  10
ENDBRANCH   5   8
ENDBRANCH   1   5
BRANCH   2  12
ATOM     12  CA  GLU A   2     -26.276  15.534  17.137  0.00  0.00    +0.137 C 
BRANCH  12  13
ATOM     13  C   GLU A   2     -25.297  15.831  16.019  0.00  0.00    +0.227 C 
ATOM     14  O   GLU A   2     -24.277  16.490  16.219  0.00  0.00    -0.286 OA
ENDBRANCH  12  13
BRANCH  12  15
ATOM     15  CB  GLU A   2     -26.643  16.765  17.955  0.00  0.00    +0.039 C 
BRANCH  15  16
ATOM     16  CG  GLU A   2     -27.852  16.581  18.850  0.00  0.00    +0.116 C 
BRANCH  16  17
ATOM     17  CD  GLU A   2     -29.149  16.544  18.066  0.00  0.00    +0.365 C 
ATOM     18  OE2 GLU A   2     -30.212  16.344  18.706  0.00  0.00    -0.246 OA
ATOM     19  OE1 GLU A   2     -29.102  16.721  16.819  0.00  0.00    -0.246 OA
ENDBRANCH  16  17
ENDBRANCH  15  16
ENDBRANCH  12  15
ENDBRANCH   2  12
TORSDOF 9
REMARK  Name = ../refined-set-2016/3v4t/3v4t_pocket.pdb
REMARK  251 active torsions:
REMARK  status: ('A' for Active; 'I' for Inactive)
REMARK    1  A    between atoms: _1  and  _3
REMARK    2  A    between atoms: _3  and  _4
REMARK    3  A    between atoms: _3  and  _6
REMARK    4  A    between atoms: _6  and  _7
REMARK    5  A    between atoms: _7  and  _8
REMARK    6  A    between atoms: _8  and  _9
REMARK    7  A    between atoms: _9  and  _10
REMARK    8  A    between atoms: _16  and  _17
REMARK    9  A    between atoms: _16  and  _19
REMARK   10  A    between atoms: _19  and  _20
REMARK   11  A    between atoms: _25  and  _27
REMARK   12  A    between atoms: _27  and  _28
REMARK   13  A    between atoms: _31  and  _33
REMARK   14  A    between atoms: _33  and  _34
REMARK   15  A    between atoms: _37  and  _39
REMARK   16  A    between atoms: _39  and  _40
REMARK   17  A    between atoms: _39  and  _42
REMARK   18  A    between atoms: _42  and  _43
REMARK   19  A    between atoms: _47  and  _48
REMARK   20  A    between atoms: _53  and  _55
REMARK   21  A    between atoms: _55  and  _56
REMARK   22  A    between atoms: _55  and  _58
REMARK   23  A    between atoms: _58  and  _59
REMARK   24  A    between atoms: _62  and  _64
REMARK   25  A    between atoms: _64  and  _65
REMARK   26  A    between atoms: _64  and  _67
REMARK   27  A    between atoms: _67  and  _68
REMARK   28  A    between atoms: _68  and  _69
REMARK   29  A    between atoms: _73  and  _74
REMARK   30  A    between atoms: _73  and  _76
REMARK   31  A    between atoms: _76  and  _77
REMARK   32  A    between atoms: _77  and  _78
REMARK   33  A    between atoms: _78  and  _79
REMARK   34  A    between atoms: _88  and  _90
REMARK   35  A    between atoms: _90  and  _91
REMARK   36  A    between atoms: _94  and  _96
REMARK   37  A    between atoms: _96  and  _97
REMARK   38  A    between atoms: _96  and  _99
REMARK   39  A    between atoms: _99  and  _100
REMARK   40  A    between atoms: _102  and  _104
REMARK   41  A    between atoms: _104  and  _105
REMARK   42  A    between atoms: _104  and  _107
REMARK   43  A    between atoms: _107  and  _108
REMARK   44  A    between atoms: _113  and  _114
REMARK   45  A    between atoms: _113  and  _116
REMARK   46  A    between atoms: _116  and  _117
REMARK   47  A    between atoms: _127  and  _129
REMARK   48  A    between atoms: _129  and  _130
REMARK   49  A    between atoms: _129  and  _132
REMARK   50  A    between atoms: _132  and  _133
REMARK   51  A    between atoms: _136  and  _138
REMARK   52  A    between atoms: _138  and  _139
REMARK   53  A    between atoms: _141  and  _143
REMARK   54  A    between atoms: _143  and  _144
REMARK   55  A    between atoms: _147  and  _149
REMARK   56  A    between atoms: _149  and  _150
REMARK   57  A    between atoms: _149  and  _152
REMARK   58  A    between atoms: _152  and  _153
REMARK   59  A    between atoms: _153  and  _154
REMARK   60  A    between atoms: _154  and  _155
REMARK   61  A    between atoms: _165  and  _166
REMARK   62  A    between atoms: _171  and  _173
REMARK   63  A    between atoms: _173  and  _174
REMARK   64  A    between atoms: _173  and  _176
REMARK   65  A    between atoms: _179  and  _181
REMARK   66  A    between atoms: _181  and  _182
REMARK   67  A    between atoms: _181  and  _184
REMARK   68  A    between atoms: _184  and  _185
REMARK   69  A    between atoms: _188  and  _190
REMARK   70  A    between atoms: _190  and  _191
REMARK   71  A    between atoms: _190  and  _193
REMARK   72  A    between atoms: _193  and  _194
REMARK   73  A    between atoms: _197  and  _199
REMARK   74  A    between atoms: _199  and  _200
REMARK   75  A    between atoms: _199  and  _202
REMARK   76  A    between atoms: _202  and  _203
REMARK   77  A    between atoms: _208  and  _210
REMARK   78  A    between atoms: _210  and  _211
REMARK   79  A    between atoms: _210  and  _213
REMARK   80  A    between atoms: _213  and  _214
REMARK   81  A    between atoms: _217  and  _219
REMARK   82  A    between atoms: _219  and  _220
REMARK   83  A    between atoms: _219  and  _222
REMARK   84  A    between atoms: _222  and  _223
REMARK   85  A    between atoms: _229  and  _231
REMARK   86  A    between atoms: _231  and  _232
REMARK   87  A    between atoms: _234  and  _236
REMARK   88  A    between atoms: _236  and  _237
REMARK   89  A    between atoms: _236  and  _239
REMARK   90  A    between atoms: _239  and  _240
REMARK   91  A    between atoms: _240  and  _241
REMARK   92  A    between atoms: _243  and  _245
REMARK   93  A    between atoms: _245  and  _246
REMARK   94  A    between atoms: _245  and  _248
REMARK   95  A    between atoms: _248  and  _249
REMARK   96  A    between atoms: _252  and  _254
REMARK   97  A    between atoms: _254  and  _255
REMARK   98  A    between atoms: _254  and  _257
REMARK   99  A    between atoms: _257  and  _258
REMARK  100  A    between atoms: _258  and  _259
REMARK  101  A    between atoms: _259  and  _260
REMARK  102  A    between atoms: _260  and  _261
REMARK  103  A    between atoms: _265  and  _267
REMARK  104  A    between atoms: _267  and  _268
REMARK  105  A    between atoms: _267  and  _270
REMARK  106  A    between atoms: _275  and  _276
REMARK  107  A    between atoms: _275  and  _278
REMARK  108  A    between atoms: _278  and  _279
REMARK  109  A    between atoms: _281  and  _283
REMARK  110  A    between atoms: _283  and  _284
REMARK  111  A    between atoms: _283  and  _286
REMARK  112  A    between atoms: _289  and  _291
REMARK  113  A    between atoms: _291  and  _292
REMARK  114  A    between atoms: _294  and  _296
REMARK  115  A    between atoms: _296  and  _297
REMARK  116  A    between atoms: _300  and  _302
REMARK  117  A    between atoms: _302  and  _303
REMARK  118  A    between atoms: _302  and  _305
REMARK  119  A    between atoms: _305  and  _306
REMARK  120  A    between atoms: _309  and  _311
REMARK  121  A    between atoms: _311  and  _312
REMARK  122  A    between atoms: _311  and  _314
REMARK  123  A    between atoms: _317  and  _319
REMARK  124  A    between atoms: _319  and  _320
REMARK  125  A    between atoms: _319  and  _322
REMARK  126  A    between atoms: _322  and  _323
REMARK  127  A    between atoms: _326  and  _328
REMARK  128  A    between atoms: _328  and  _329
REMARK  129  A    between atoms: _332  and  _334
REMARK  130  A    between atoms: _334  and  _335
REMARK  131  A    between atoms: _334  and  _337
REMARK  132  A    between atoms: _337  and  _338
REMARK  133  A    between atoms: _338  and  _339
REMARK  134  A    between atoms: _342  and  _344
REMARK  135  A    between atoms: _344  and  _345
REMARK  136  A    between atoms: _344  and  _347
REMARK  137  A    between atoms: _347  and  _348
REMARK  138  A    between atoms: _348  and  _349
REMARK  139  A    between atoms: _352  and  _354
REMARK  140  A    between atoms: _354  and  _355
REMARK  141  A    between atoms: _354  and  _357
REMARK  142  A    between atoms: _357  and  _358
REMARK  143  A    between atoms: _361  and  _363
REMARK  144  A    between atoms: _363  and  _364
REMARK  145  A    between atoms: _363  and  _366
REMARK  146  A    between atoms: _366  and  _367
REMARK  147  A    between atoms: _367  and  _368
REMARK  148  A    between atoms: _368  and  _369
REMARK  149  A    between atoms: _378  and  _380
REMARK  150  A    between atoms: _380  and  _381
REMARK  151  A    between atoms: _380  and  _383
REMARK  152  A    between atoms: _383  and  _384
REMARK  153  A    between atoms: _387  and  _389
REMARK  154  A    between atoms: _389  and  _390
REMARK  155  A    between atoms: _389  and  _392
REMARK  156  A    between atoms: _392  and  _393
REMARK  157  A    between atoms: _396  and  _398
REMARK  158  A    between atoms: _398  and  _399
REMARK  159  A    between atoms: _403  and  _404
REMARK  160  A    between atoms: _409  and  _411
REMARK  161  A    between atoms: _411  and  _412
REMARK  162  A    between atoms: _411  and  _414
REMARK  163  A    between atoms: _414  and  _415
REMARK  164  A    between atoms: _420  and  _422
REMARK  165  A    between atoms: _422  and  _423
REMARK  166  A    between atoms: _422  and  _425
REMARK  167  A    between atoms: _425  and  _426
REMARK  168  A    between atoms: _433  and  _434
REMARK  169  A    between atoms: _439  and  _441
REMARK  170  A    between atoms: _441  and  _442
REMARK  171  A    between atoms: _441  and  _444
REMARK  172  A    between atoms: _444  and  _445
REMARK  173  A    between atoms: _448  and  _450
REMARK  174  A    between atoms: _450  and  _451
REMARK  175  A    between atoms: _450  and  _453
REMARK  176  A    between atoms: _453  and  _454
REMARK  177  A    between atoms: _457  and  _459
REMARK  178  A    between atoms: _459  and  _460
REMARK  179  A    between atoms: _459  and  _462
REMARK  180  A    between atoms: _462  and  _463
REMARK  181  A    between atoms: _463  and  _464
REMARK  182  A    between atoms: _468  and  _469
REMARK  183  A    between atoms: _468  and  _471
REMARK  184  A    between atoms: _471  and  _472
REMARK  185  A    between atoms: _472  and  _473
REMARK  186  A    between atoms: _478  and  _480
REMARK  187  A    between atoms: _480  and  _481
REMARK  188  A    between atoms: _480  and  _483
REMARK  189  A    between atoms: _483  and  _484
REMARK  190  A    between atoms: _484  and  _485
REMARK  191  A    between atoms: _488  and  _490
REMARK  192  A    between atoms: _490  and  _491
REMARK  193  A    between atoms: _490  and  _493
REMARK  194  A    between atoms: _493  and  _494
REMARK  195  A    between atoms: _497  and  _499
REMARK  196  A    between atoms: _499  and  _500
REMARK  197  A    between atoms: _499  and  _502
REMARK  198  A    between atoms: _502  and  _503
REMARK  199  A    between atoms: _506  and  _508
REMARK  200  A    between atoms: _508  and  _509
REMARK  201  A    between atoms: _508  and  _511
REMARK  202  A    between atoms: _511  and  _512
REMARK  203  A    between atoms: _520  and  _521
REMARK  204  A    between atoms: _520  and  _523
REMARK  205  A    between atoms: _523  and  _524
REMARK  206  A    between atoms: _524  and  _525
REMARK  207  A    between atoms: _528  and  _530
REMARK  208  A    between atoms: _530  and  _531
REMARK  209  A    between atoms: _530  and  _533
REMARK  210  A    between atoms: _533  and  _534
REMARK  211  A    between atoms: _539  and  _541
REMARK  212  A    between atoms: _541  and  _542
REMARK  213  A    between atoms: _541  and  _544
REMARK  214  A    between atoms: _544  and  _545
REMARK  215  A    between atoms: _545  and  _546
REMARK  216  A    between atoms: _546  and  _547
REMARK  217  A    between atoms: _556  and  _558
REMARK  218  A    between atoms: _558  and  _559
REMARK  219  A    between atoms: _558  and  _561
REMARK  220  A    between atoms: _561  and  _562
REMARK  221  A    between atoms: _565  and  _567
REMARK  222  A    between atoms: _567  and  _568
REMARK  223  A    between atoms: _567  and  _570
REMARK  224  A    between atoms: _570  and  _571
REMARK  225  A    between atoms: _574  and  _576
REMARK  226  A    between atoms: _576  and  _577
REMARK  227  A    between atoms: _576  and  _579
REMARK  228  A    between atoms: _579  and  _580
REMARK  229  A    between atoms: _580  and  _581
REMARK  230  A    between atoms: _581  and  _582
REMARK  231  A    between atoms: _591  and  _593
REMARK  232  A    between atoms: _593  and  _594
REMARK  233  A    between atoms: _593  and  _596
REMARK  234  A    between atoms: _596  and  _597
REMARK  235  A    between atoms: _597  and  _598
REMARK  236  A    between atoms: _598  and  _599
REMARK  237  A    between atoms: _608  and  _610
REMARK  238  A    between atoms: _610  and  _611
REMARK  239  A    between atoms: _610  and  _613
REMARK  240  A    between atoms: _613  and  _614
REMARK  241  A    between atoms: _614  and  _615
REMARK  242  A    between atoms: _615  and  _616
REMARK  243  A    between atoms: _625  and  _627
REMARK  244  A    between atoms: _627  and  _628
REMARK  245  A    between atoms: _627  and  _630
REMARK  246  A    between atoms: _630  and  _631
REMARK  247  A    between atoms: _634  and  _636
REMARK  248  A    between atoms: _636  and  _637
REMARK  249  A    between atoms: _636  and  _639
REMARK  250  A    between atoms: _639  and  _640
REMARK  251  A    between atoms: _640  and  _641
REMARK                            x       y       z     vdW  Elec       q    Type
REMARK                         _______ _______ _______ _____ _____    ______ ____
ROOT
ATOM      1  O   HOH     1     -45.409  11.726   9.829  0.00  0.00    +0.000 OA
ENDROOT
TORSDOF 0
REMARK  Name = ../refined-set-2016/3v4t/3v4t_pocket.pdb
REMARK  251 active torsions:
REMARK  status: ('A' for Active; 'I' for Inactive)
REMARK    1  A    between atoms: _1  and  _3
REMARK    2  A    between atoms: _3  and  _4
REMARK    3  A    between atoms: _3  and  _6
REMARK    4  A    between atoms: _6  and  _7
REMARK    5  A    between atoms: _7  and  _8
REMARK    6  A    between atoms: _8  and  _9
REMARK    7  A    between atoms: _9  and  _10
REMARK    8  A    between atoms: _16  and  _17
REMARK    9  A    between atoms: _16  and  _19
REMARK   10  A    between atoms: _19  and  _20
REMARK   11  A    between atoms: _25  and  _27
REMARK   12  A    between atoms: _27  and  _28
REMARK   13  A    between atoms: _31  and  _33
REMARK   14  A    between atoms: _33  and  _34
REMARK   15  A    between atoms: _37  and  _39
REMARK   16  A    between atoms: _39  and  _40
REMARK   17  A    between atoms: _39  and  _42
REMARK   18  A    between atoms: _42  and  _43
REMARK   19  A    between atoms: _47  and  _48
REMARK   20  A    between atoms: _53  and  _55
REMARK   21  A    between atoms: _55  and  _56
REMARK   22  A    between atoms: _55  and  _58
REMARK   23  A    between atoms: _58  and  _59
REMARK   24  A    between atoms: _62  and  _64
REMARK   25  A    between atoms: _64  and  _65
REMARK   26  A    between atoms: _64  and  _67
REMARK   27  A    between atoms: _67  and  _68
REMARK   28  A    between atoms: _68  and  _69
REMARK   29  A    between atoms: _73  and  _74
REMARK   30  A    between atoms: _73  and  _76
REMARK   31  A    between atoms: _76  and  _77
REMARK   32  A    between atoms: _77  and  _78
REMARK   33  A    between atoms: _78  and  _79
REMARK   34  A    between atoms: _88  and  _90
REMARK   35  A    between atoms: _90  and  _91
REMARK   36  A    between atoms: _94  and  _96
REMARK   37  A    between atoms: _96  and  _97
REMARK   38  A    between atoms: _96  and  _99
REMARK   39  A    between atoms: _99  and  _100
REMARK   40  A    between atoms: _102  and  _104
REMARK   41  A    between atoms: _104  and  _105
REMARK   42  A    between atoms: _104  and  _107
REMARK   43  A    between atoms: _107  and  _108
REMARK   44  A    between atoms: _113  and  _114
REMARK   45  A    between atoms: _113  and  _116
REMARK   46  A    between atoms: _116  and  _117
REMARK   47  A    between atoms: _127  and  _129
REMARK   48  A    between atoms: _129  and  _130
REMARK   49  A    between atoms: _129  and  _132
REMARK   50  A    between atoms: _132  and  _133
REMARK   51  A    between atoms: _136  and  _138
REMARK   52  A    between atoms: _138  and  _139
REMARK   53  A    between atoms: _141  and  _143
REMARK   54  A    between atoms: _143  and  _144
REMARK   55  A    between atoms: _147  and  _149
REMARK   56  A    between atoms: _149  and  _150
REMARK   57  A    between atoms: _149  and  _152
REMARK   58  A    between atoms: _152  and  _153
REMARK   59  A    between atoms: _153  and  _154
REMARK   60  A    between atoms: _154  and  _155
REMARK   61  A    between atoms: _165  and  _166
REMARK   62  A    between atoms: _171  and  _173
REMARK   63  A    between atoms: _173  and  _174
REMARK   64  A    between atoms: _173  and  _176
REMARK   65  A    between atoms: _179  and  _181
REMARK   66  A    between atoms: _181  and  _182
REMARK   67  A    between atoms: _181  and  _184
REMARK   68  A    between atoms: _184  and  _185
REMARK   69  A    between atoms: _188  and  _190
REMARK   70  A    between atoms: _190  and  _191
REMARK   71  A    between atoms: _190  and  _193
REMARK   72  A    between atoms: _193  and  _194
REMARK   73  A    between atoms: _197  and  _199
REMARK   74  A    between atoms: _199  and  _200
REMARK   75  A    between atoms: _199  and  _202
REMARK   76  A    between atoms: _202  and  _203
REMARK   77  A    between atoms: _208  and  _210
REMARK   78  A    between atoms: _210  and  _211
REMARK   79  A    between atoms: _210  and  _213
REMARK   80  A    between atoms: _213  and  _214
REMARK   81  A    between atoms: _217  and  _219
REMARK   82  A    between atoms: _219  and  _220
REMARK   83  A    between atoms: _219  and  _222
REMARK   84  A    between atoms: _222  and  _223
REMARK   85  A    between atoms: _229  and  _231
REMARK   86  A    between atoms: _231  and  _232
REMARK   87  A    between atoms: _234  and  _236
REMARK   88  A    between atoms: _236  and  _237
REMARK   89  A    between atoms: _236  and  _239
REMARK   90  A    between atoms: _239  and  _240
REMARK   91  A    between atoms: _240  and  _241
REMARK   92  A    between atoms: _243  and  _245
REMARK   93  A    between atoms: _245  and  _246
REMARK   94  A    between atoms: _245  and  _248
REMARK   95  A    between atoms: _248  and  _249
REMARK   96  A    between atoms: _252  and  _254
REMARK   97  A    between atoms: _254  and  _255
REMARK   98  A    between atoms: _254  and  _257
REMARK   99  A    between atoms: _257  and  _258
REMARK  100  A    between atoms: _258  and  _259
REMARK  101  A    between atoms: _259  and  _260
REMARK  102  A    between atoms: _260  and  _261
REMARK  103  A    between atoms: _265  and  _267
REMARK  104  A    between atoms: _267  and  _268
REMARK  105  A    between atoms: _267  and  _270
REMARK  106  A    between atoms: _275  and  _276
REMARK  107  A    between atoms: _275  and  _278
REMARK  108  A    between atoms: _278  and  _279
REMARK  109  A    between atoms: _281  and  _283
REMARK  110  A    between atoms: _283  and  _284
REMARK  111  A    between atoms: _283  and  _286
REMARK  112  A    between atoms: _289  and  _291
REMARK  113  A    between atoms: _291  and  _292
REMARK  114  A    between atoms: _294  and  _296
REMARK  115  A    between atoms: _296  and  _297
REMARK  116  A    between atoms: _300  and  _302
REMARK  117  A    between atoms: _302  and  _303
REMARK  118  A    between atoms: _302  and  _305
REMARK  119  A    between atoms: _305  and  _306
REMARK  120  A    between atoms: _309  and  _311
REMARK  121  A    between atoms: _311  and  _312
REMARK  122  A    between atoms: _311  and  _314
REMARK  123  A    between atoms: _317  and  _319
REMARK  124  A    between atoms: _319  and  _320
REMARK  125  A    between atoms: _319  and  _322
REMARK  126  A    between atoms: _322  and  _323
REMARK  127  A    between atoms: _326  and  _328
REMARK  128  A    between atoms: _328  and  _329
REMARK  129  A    between atoms: _332  and  _334
REMARK  130  A    between atoms: _334  and  _335
REMARK  131  A    between atoms: _334  and  _337
REMARK  132  A    between atoms: _337  and  _338
REMARK  133  A    between atoms: _338  and  _339
REMARK  134  A    between atoms: _342  and  _344
REMARK  135  A    between atoms: _344  and  _345
REMARK  136  A    between atoms: _344  and  _347
REMARK  137  A    between atoms: _347  and  _348
REMARK  138  A    between atoms: _348  and  _349
REMARK  139  A    between atoms: _352  and  _354
REMARK  140  A    between atoms: _354  and  _355
REMARK  141  A    between atoms: _354  and  _357
REMARK  142  A    between atoms: _357  and  _358
REMARK  143  A    between atoms: _361  and  _363
REMARK  144  A    between atoms: _363  and  _364
REMARK  145  A    between atoms: _363  and  _366
REMARK  146  A    between atoms: _366  and  _367
REMARK  147  A    between atoms: _367  and  _368
REMARK  148  A    between atoms: _368  and  _369
REMARK  149  A    between atoms: _378  and  _380
REMARK  150  A    between atoms: _380  and  _381
REMARK  151  A    between atoms: _380  and  _383
REMARK  152  A    between atoms: _383  and  _384
REMARK  153  A    between atoms: _387  and  _389
REMARK  154  A    between atoms: _389  and  _390
REMARK  155  A    between atoms: _389  and  _392
REMARK  156  A    between atoms: _392  and  _393
REMARK  157  A    between atoms: _396  and  _398
REMARK  158  A    between atoms: _398  and  _399
REMARK  159  A    between atoms: _403  and  _404
REMARK  160  A    between atoms: _409  and  _411
REMARK  161  A    between atoms: _411  and  _412
REMARK  162  A    between atoms: _411  and  _414
REMARK  163  A    between atoms: _414  and  _415
REMARK  164  A    between atoms: _420  and  _422
REMARK  165  A    between atoms: _422  and  _423
REMARK  166  A    between atoms: _422  and  _425
REMARK  167  A    between atoms: _425  and  _426
REMARK  168  A    between atoms: _433  and  _434
REMARK  169  A    between atoms: _439  and  _441
REMARK  170  A    between atoms: _441  and  _442
REMARK  171  A    between atoms: _441  and  _444
REMARK  172  A    between atoms: _444  and  _445
REMARK  173  A    between atoms: _448  and  _450
REMARK  174  A    between atoms: _450  and  _451
REMARK  175  A    between atoms: _450  and  _453
REMARK  176  A    between atoms: _453  and  _454
REMARK  177  A    between atoms: _457  and  _459
REMARK  178  A    between atoms: _459  and  _460
REMARK  179  A    between atoms: _459  and  _462
REMARK  180  A    between atoms: _462  and  _463
REMARK  181  A    between atoms: _463  and  _464
REMARK  182  A    between atoms: _468  and  _469
REMARK  183  A    between atoms: _468  and  _471
REMARK  184  A    between atoms: _471  and  _472
REMARK  185  A    between atoms: _472  and  _473
REMARK  186  A    between atoms: _478  and  _480
REMARK  187  A    between atoms: _480  and  _481
REMARK  188  A    between atoms: _480  and  _483
REMARK  189  A    between atoms: _483  and  _484
REMARK  190  A    between atoms: _484  and  _485
REMARK  191  A    between atoms: _488  and  _490
REMARK  192  A    between atoms: _490  and  _491
REMARK  193  A    between atoms: _490  and  _493
REMARK  194  A    between atoms: _493  and  _494
REMARK  195  A    between atoms: _497  and  _499
REMARK  196  A    between atoms: _499  and  _500
REMARK  197  A    between atoms: _499  and  _502
REMARK  198  A    between atoms: _502  and  _503
REMARK  199  A    between atoms: _506  and  _508
REMARK  200  A    between atoms: _508  and  _509
REMARK  201  A    between atoms: _508  and  _511
REMARK  202  A    between atoms: _511  and  _512
REMARK  203  A    between atoms: _520  and  _521
REMARK  204  A    between atoms: _520  and  _523
REMARK  205  A    between atoms: _523  and  _524
REMARK  206  A    between atoms: _524  and  _525
REMARK  207  A    between atoms: _528  and  _530
REMARK  208  A    between atoms: _530  and  _531
REMARK  209  A    between atoms: _530  and  _533
REMARK  210  A    between atoms: _533  and  _534
REMARK  211  A    between atoms: _539  and  _541
REMARK  212  A    between atoms: _541  and  _542
REMARK  213  A    between atoms: _541  and  _544
REMARK  214  A    between atoms: _544  and  _545
REMARK  215  A    between atoms: _545  and  _546
REMARK  216  A    between atoms: _546  and  _547
REMARK  217  A    between atoms: _556  and  _558
REMARK  218  A    between atoms: _558  and  _559
REMARK  219  A    between atoms: _558  and  _561
REMARK  220  A    between atoms: _561  and  _562
REMARK  221  A    between atoms: _565  and  _567
REMARK  222  A    between atoms: _567  and  _568
REMARK  223  A    between atoms: _567  and  _570
REMARK  224  A    between atoms: _570  and  _571
REMARK  225  A    between atoms: _574  and  _576
REMARK  226  A    between atoms: _576  and  _577
REMARK  227  A    between atoms: _576  and  _579
REMARK  228  A    between atoms: _579  and  _580
REMARK  229  A    between atoms: _580  and  _581
REMARK  230  A    between atoms: _581  and  _582
REMARK  231  A    between atoms: _591  and  _593
REMARK  232  A    between atoms: _593  and  _594
REMARK  233  A    between atoms: _593  and  _596
REMARK  234  A    between atoms: _596  and  _597
REMARK  235  A    between atoms: _597  and  _598
REMARK  236  A    between atoms: _598  and  _599
REMARK  237  A    between atoms: _608  and  _610
REMARK  238  A    between atoms: _610  and  _611
REMARK  239  A    between atoms: _610  and  _613
REMARK  240  A    between atoms: _613  and  _614
REMARK  241  A    between atoms: _614  and  _615
REMARK  242  A    between atoms: _615  and  _616
REMARK  243  A    between atoms: _625  and  _627
REMARK  244  A    between atoms: _627  and  _628
REMARK  245  A    between atoms: _627  and  _630
REMARK  246  A    between atoms: _630  and  _631
REMARK  247  A    between atoms: _634  and  _636
REMARK  248  A    between atoms: _636  and  _637
REMARK  249  A    between atoms: _636  and  _639
REMARK  250  A    between atoms: _639  and  _640
REMARK  251  A    between atoms: _640  and  _641
REMARK                            x       y       z     vdW  Elec       q    Type
REMARK                         _______ _______ _______ _____ _____    ______ ____
ROOT
ATOM      1  O   HOH     1     -39.213   9.939   6.068  0.00  0.00    +0.000 OA
ENDROOT
TORSDOF 0
REMARK  Name = ../refined-set-2016/3v4t/3v4t_pocket.pdb
REMARK  251 active torsions:
REMARK  status: ('A' for Active; 'I' for Inactive)
REMARK    1  A    between atoms: _1  and  _3
REMARK    2  A    between atoms: _3  and  _4
REMARK    3  A    between atoms: _3  and  _6
REMARK    4  A    between atoms: _6  and  _7
REMARK    5  A    between atoms: _7  and  _8
REMARK    6  A    between atoms: _8  and  _9
REMARK    7  A    between atoms: _9  and  _10
REMARK    8  A    between atoms: _16  and  _17
REMARK    9  A    between atoms: _16  and  _19
REMARK   10  A    between atoms: _19  and  _20
REMARK   11  A    between atoms: _25  and  _27
REMARK   12  A    between atoms: _27  and  _28
REMARK   13  A    between atoms: _31  and  _33
REMARK   14  A    between atoms: _33  and  _34
REMARK   15  A    between atoms: _37  and  _39
REMARK   16  A    between atoms: _39  and  _40
REMARK   17  A    between atoms: _39  and  _42
REMARK   18  A    between atoms: _42  and  _43
REMARK   19  A    between atoms: _47  and  _48
REMARK   20  A    between atoms: _53  and  _55
REMARK   21  A    between atoms: _55  and  _56
REMARK   22  A    between atoms: _55  and  _58
REMARK   23  A    between atoms: _58  and  _59
REMARK   24  A    between atoms: _62  and  _64
REMARK   25  A    between atoms: _64  and  _65
REMARK   26  A    between atoms: _64  and  _67
REMARK   27  A    between atoms: _67  and  _68
REMARK   28  A    between atoms: _68  and  _69
REMARK   29  A    between atoms: _73  and  _74
REMARK   30  A    between atoms: _73  and  _76
REMARK   31  A    between atoms: _76  and  _77
REMARK   32  A    between atoms: _77  and  _78
REMARK   33  A    between atoms: _78  and  _79
REMARK   34  A    between atoms: _88  and  _90
REMARK   35  A    between atoms: _90  and  _91
REMARK   36  A    between atoms: _94  and  _96
REMARK   37  A    between atoms: _96  and  _97
REMARK   38  A    between atoms: _96  and  _99
REMARK   39  A    between atoms: _99  and  _100
REMARK   40  A    between atoms: _102  and  _104
REMARK   41  A    between atoms: _104  and  _105
REMARK   42  A    between atoms: _104  and  _107
REMARK   43  A    between atoms: _107  and  _108
REMARK   44  A    between atoms: _113  and  _114
REMARK   45  A    between atoms: _113  and  _116
REMARK   46  A    between atoms: _116  and  _117
REMARK   47  A    between atoms: _127  and  _129
REMARK   48  A    between atoms: _129  and  _130
REMARK   49  A    between atoms: _129  and  _132
REMARK   50  A    between atoms: _132  and  _133
REMARK   51  A    between atoms: _136  and  _138
REMARK   52  A    between atoms: _138  and  _139
REMARK   53  A    between atoms: _141  and  _143
REMARK   54  A    between atoms: _143  and  _144
REMARK   55  A    between atoms: _147  and  _149
REMARK   56  A    between atoms: _149  and  _150
REMARK   57  A    between atoms: _149  and  _152
REMARK   58  A    between atoms: _152  and  _153
REMARK   59  A    between atoms: _153  and  _154
REMARK   60  A    between atoms: _154  and  _155
REMARK   61  A    between atoms: _165  and  _166
REMARK   62  A    between atoms: _171  and  _173
REMARK   63  A    between atoms: _173  and  _174
REMARK   64  A    between atoms: _173  and  _176
REMARK   65  A    between atoms: _179  and  _181
REMARK   66  A    between atoms: _181  and  _182
REMARK   67  A    between atoms: _181  and  _184
REMARK   68  A    between atoms: _184  and  _185
REMARK   69  A    between atoms: _188  and  _190
REMARK   70  A    between atoms: _190  and  _191
REMARK   71  A    between atoms: _190  and  _193
REMARK   72  A    between atoms: _193  and  _194
REMARK   73  A    between atoms: _197  and  _199
REMARK   74  A    between atoms: _199  and  _200
REMARK   75  A    between atoms: _199  and  _202
REMARK   76  A    between atoms: _202  and  _203
REMARK   77  A    between atoms: _208  and  _210
REMARK   78  A    between atoms: _210  and  _211
REMARK   79  A    between atoms: _210  and  _213
REMARK   80  A    between atoms: _213  and  _214
REMARK   81  A    between atoms: _217  and  _219
REMARK   82  A    between atoms: _219  and  _220
REMARK   83  A    between atoms: _219  and  _222
REMARK   84  A    between atoms: _222  and  _223
REMARK   85  A    between atoms: _229  and  _231
REMARK   86  A    between atoms: _231  and  _232
REMARK   87  A    between atoms: _234  and  _236
REMARK   88  A    between atoms: _236  and  _237
REMARK   89  A    between atoms: _236  and  _239
REMARK   90  A    between atoms: _239  and  _240
REMARK   91  A    between atoms: _240  and  _241
REMARK   92  A    between atoms: _243  and  _245
REMARK   93  A    between atoms: _245  and  _246
REMARK   94  A    between atoms: _245  and  _248
REMARK   95  A    between atoms: _248  and  _249
REMARK   96  A    between atoms: _252  and  _254
REMARK   97  A    between atoms: _254  and  _255
REMARK   98  A    between atoms: _254  and  _257
REMARK   99  A    between atoms: _257  and  _258
REMARK  100  A    between atoms: _258  and  _259
REMARK  101  A    between atoms: _259  and  _260
REMARK  102  A    between atoms: _260  and  _261
REMARK  103  A    between atoms: _265  and  _267
REMARK  104  A    between atoms: _267  and  _268
REMARK  105  A    between atoms: _267  and  _270
REMARK  106  A    between atoms: _275  and  _276
REMARK  107  A    between atoms: _275  and  _278
REMARK  108  A    between atoms: _278  and  _279
REMARK  109  A    between atoms: _281  and  _283
REMARK  110  A    between atoms: _283  and  _284
REMARK  111  A    between atoms: _283  and  _286
REMARK  112  A    between atoms: _289  and  _291
REMARK  113  A    between atoms: _291  and  _292
REMARK  114  A    between atoms: _294  and  _296
REMARK  115  A    between atoms: _296  and  _297
REMARK  116  A    between atoms: _300  and  _302
REMARK  117  A    between atoms: _302  and  _303
REMARK  118  A    between atoms: _302  and  _305
REMARK  119  A    between atoms: _305  and  _306
REMARK  120  A    between atoms: _309  and  _311
REMARK  121  A    between atoms: _311  and  _312
REMARK  122  A    between atoms: _311  and  _314
REMARK  123  A    between atoms: _317  and  _319
REMARK  124  A    between atoms: _319  and  _320
REMARK  125  A    between atoms: _319  and  _322
REMARK  126  A    between atoms: _322  and  _323
REMARK  127  A    between atoms: _326  and  _328
REMARK  128  A    between atoms: _328  and  _329
REMARK  129  A    between atoms: _332  and  _334
REMARK  130  A    between atoms: _334  and  _335
REMARK  131  A    between atoms: _334  and  _337
REMARK  132  A    between atoms: _337  and  _338
REMARK  133  A    between atoms: _338  and  _339
REMARK  134  A    between atoms: _342  and  _344
REMARK  135  A    between atoms: _344  and  _345
REMARK  136  A    between atoms: _344  and  _347
REMARK  137  A    between atoms: _347  and  _348
REMARK  138  A    between atoms: _348  and  _349
REMARK  139  A    between atoms: _352  and  _354
REMARK  140  A    between atoms: _354  and  _355
REMARK  141  A    between atoms: _354  and  _357
REMARK  142  A    between atoms: _357  and  _358
REMARK  143  A    between atoms: _361  and  _363
REMARK  144  A    between atoms: _363  and  _364
REMARK  145  A    between atoms: _363  and  _366
REMARK  146  A    between atoms: _366  and  _367
REMARK  147  A    between atoms: _367  and  _368
REMARK  148  A    between atoms: _368  and  _369
REMARK  149  A    between atoms: _378  and  _380
REMARK  150  A    between atoms: _380  and  _381
REMARK  151  A    between atoms: _380  and  _383
REMARK  152  A    between atoms: _383  and  _384
REMARK  153  A    between atoms: _387  and  _389
REMARK  154  A    between atoms: _389  and  _390
REMARK  155  A    between atoms: _389  and  _392
REMARK  156  A    between atoms: _392  and  _393
REMARK  157  A    between atoms: _396  and  _398
REMARK  158  A    between atoms: _398  and  _399
REMARK  159  A    between atoms: _403  and  _404
REMARK  160  A    between atoms: _409  and  _411
REMARK  161  A    between atoms: _411  and  _412
REMARK  162  A    between atoms: _411  and  _414
REMARK  163  A    between atoms: _414  and  _415
REMARK  164  A    between atoms: _420  and  _422
REMARK  165  A    between atoms: _422  and  _423
REMARK  166  A    between atoms: _422  and  _425
REMARK  167  A    between atoms: _425  and  _426
REMARK  168  A    between atoms: _433  and  _434
REMARK  169  A    between atoms: _439  and  _441
REMARK  170  A    between atoms: _441  and  _442
REMARK  171  A    between atoms: _441  and  _444
REMARK  172  A    between atoms: _444  and  _445
REMARK  173  A    between atoms: _448  and  _450
REMARK  174  A    between atoms: _450  and  _451
REMARK  175  A    between atoms: _450  and  _453
REMARK  176  A    between atoms: _453  and  _454
REMARK  177  A    between atoms: _457  and  _459
REMARK  178  A    between atoms: _459  and  _460
REMARK  179  A    between atoms: _459  and  _462
REMARK  180  A    between atoms: _462  and  _463
REMARK  181  A    between atoms: _463  and  _464
REMARK  182  A    between atoms: _468  and  _469
REMARK  183  A    between atoms: _468  and  _471
REMARK  184  A    between atoms: _471  and  _472
REMARK  185  A    between atoms: _472  and  _473
REMARK  186  A    between atoms: _478  and  _480
REMARK  187  A    between atoms: _480  and  _481
REMARK  188  A    between atoms: _480  and  _483
REMARK  189  A    between atoms: _483  and  _484
REMARK  190  A    between atoms: _484  and  _485
REMARK  191  A    between atoms: _488  and  _490
REMARK  192  A    between atoms: _490  and  _491
REMARK  193  A    between atoms: _490  and  _493
REMARK  194  A    between atoms: _493  and  _494
REMARK  195  A    between atoms: _497  and  _499
REMARK  196  A    between atoms: _499  and  _500
REMARK  197  A    between atoms: _499  and  _502
REMARK  198  A    between atoms: _502  and  _503
REMARK  199  A    between atoms: _506  and  _508
REMARK  200  A    between atoms: _508  and  _509
REMARK  201  A    between atoms: _508  and  _511
REMARK  202  A    between atoms: _511  and  _512
REMARK  203  A    between atoms: _520  and  _521
REMARK  204  A    between atoms: _520  and  _523
REMARK  205  A    between atoms: _523  and  _524
REMARK  206  A    between atoms: _524  and  _525
REMARK  207  A    between atoms: _528  and  _530
REMARK  208  A    between atoms: _530  and  _531
REMARK  209  A    between atoms: _530  and  _533
REMARK  210  A    between atoms: _533  and  _534
REMARK  211  A    between atoms: _539  and  _541
REMARK  212  A    between atoms: _541  and  _542
REMARK  213  A    between atoms: _541  and  _544
REMARK  214  A    between atoms: _544  and  _545
REMARK  215  A    between atoms: _545  and  _546
REMARK  216  A    between atoms: _546  and  _547
REMARK  217  A    between atoms: _556  and  _558
REMARK  218  A    between atoms: _558  and  _559
REMARK  219  A    between atoms: _558  and  _561
REMARK  220  A    between atoms: _561  and  _562
REMARK  221  A    between atoms: _565  and  _567
REMARK  222  A    between atoms: _567  and  _568
REMARK  223  A    between atoms: _567  and  _570
REMARK  224  A    between atoms: _570  and  _571
REMARK  225  A    between atoms: _574  and  _576
REMARK  226  A    between atoms: _576  and  _577
REMARK  227  A    between atoms: _576  and  _579
REMARK  228  A    between atoms: _579  and  _580
REMARK  229  A    between atoms: _580  and  _581
REMARK  230  A    between atoms: _581  and  _582
REMARK  231  A    between atoms: _591  and  _593
REMARK  232  A    between atoms: _593  and  _594
REMARK  233  A    between atoms: _593  and  _596
REMARK  234  A    between atoms: _596  and  _597
REMARK  235  A    between atoms: _597  and  _598
REMARK  236  A    between atoms: _598  and  _599
REMARK  237  A    between atoms: _608  and  _610
REMARK  238  A    between atoms: _610  and  _611
REMARK  239  A    between atoms: _610  and  _613
REMARK  240  A    between atoms: _613  and  _614
REMARK  241  A    between atoms: _614  and  _615
REMARK  242  A    between atoms: _615  and  _616
REMARK  243  A    between atoms: _625  and  _627
REMARK  244  A    between atoms: _627  and  _628
REMARK  245  A    between atoms: _627  and  _630
REMARK  246  A    between atoms: _630  and  _631
REMARK  247  A    between atoms: _634  and  _636
REMARK  248  A    between atoms: _636  and  _637
REMARK  249  A    between atoms: _636  and  _639
REMARK  250  A    between atoms: _639  and  _640
REMARK  251  A    between atoms: _640  and  _641
REMARK                            x       y       z     vdW  Elec       q    Type
REMARK                         _______ _______ _______ _____ _____    ______ ____
ROOT
ATOM      1  O   HOH     1     -34.962   4.523  14.278  0.00  0.00    +0.000 OA
ENDROOT
TORSDOF 0
REMARK  Name = ../refined-set-2016/3v4t/3v4t_pocket.pdb
REMARK  251 active torsions:
REMARK  status: ('A' for Active; 'I' for Inactive)
REMARK    1  A    between atoms: _1  and  _3
REMARK    2  A    between atoms: _3  and  _4
REMARK    3  A    between atoms: _3  and  _6
REMARK    4  A    between atoms: _6  and  _7
REMARK    5  A    between atoms: _7  and  _8
REMARK    6  A    between atoms: _8  and  _9
REMARK    7  A    between atoms: _9  and  _10
REMARK    8  A    between atoms: _16  and  _17
REMARK    9  A    between atoms: _16  and  _19
REMARK   10  A    between atoms: _19  and  _20
REMARK   11  A    between atoms: _25  and  _27
REMARK   12  A    between atoms: _27  and  _28
REMARK   13  A    between atoms: _31  and  _33
REMARK   14  A    between atoms: _33  and  _34
REMARK   15  A    between atoms: _37  and  _39
REMARK   16  A    between atoms: _39  and  _40
REMARK   17  A    between atoms: _39  and  _42
REMARK   18  A    between atoms: _42  and  _43
REMARK   19  A    between atoms: _47  and  _48
REMARK   20  A    between atoms: _53  and  _55
REMARK   21  A    between atoms: _55  and  _56
REMARK   22  A    between atoms: _55  and  _58
REMARK   23  A    between atoms: _58  and  _59
REMARK   24  A    between atoms: _62  and  _64
REMARK   25  A    between atoms: _64  and  _65
REMARK   26  A    between atoms: _64  and  _67
REMARK   27  A    between atoms: _67  and  _68
REMARK   28  A    between atoms: _68  and  _69
REMARK   29  A    between atoms: _73  and  _74
REMARK   30  A    between atoms: _73  and  _76
REMARK   31  A    between atoms: _76  and  _77
REMARK   32  A    between atoms: _77  and  _78
REMARK   33  A    between atoms: _78  and  _79
REMARK   34  A    between atoms: _88  and  _90
REMARK   35  A    between atoms: _90  and  _91
REMARK   36  A    between atoms: _94  and  _96
REMARK   37  A    between atoms: _96  and  _97
REMARK   38  A    between atoms: _96  and  _99
REMARK   39  A    between atoms: _99  and  _100
REMARK   40  A    between atoms: _102  and  _104
REMARK   41  A    between atoms: _104  and  _105
REMARK   42  A    between atoms: _104  and  _107
REMARK   43  A    between atoms: _107  and  _108
REMARK   44  A    between atoms: _113  and  _114
REMARK   45  A    between atoms: _113  and  _116
REMARK   46  A    between atoms: _116  and  _117
REMARK   47  A    between atoms: _127  and  _129
REMARK   48  A    between atoms: _129  and  _130
REMARK   49  A    between atoms: _129  and  _132
REMARK   50  A    between atoms: _132  and  _133
REMARK   51  A    between atoms: _136  and  _138
REMARK   52  A    between atoms: _138  and  _139
REMARK   53  A    between atoms: _141  and  _143
REMARK   54  A    between atoms: _143  and  _144
REMARK   55  A    between atoms: _147  and  _149
REMARK   56  A    between atoms: _149  and  _150
REMARK   57  A    between atoms: _149  and  _152
REMARK   58  A    between atoms: _152  and  _153
REMARK   59  A    between atoms: _153  and  _154
REMARK   60  A    between atoms: _154  and  _155
REMARK   61  A    between atoms: _165  and  _166
REMARK   62  A    between atoms: _171  and  _173
REMARK   63  A    between atoms: _173  and  _174
REMARK   64  A    between atoms: _173  and  _176
REMARK   65  A    between atoms: _179  and  _181
REMARK   66  A    between atoms: _181  and  _182
REMARK   67  A    between atoms: _181  and  _184
REMARK   68  A    between atoms: _184  and  _185
REMARK   69  A    between atoms: _188  and  _190
REMARK   70  A    between atoms: _190  and  _191
REMARK   71  A    between atoms: _190  and  _193
REMARK   72  A    between atoms: _193  and  _194
REMARK   73  A    between atoms: _197  and  _199
REMARK   74  A    between atoms: _199  and  _200
REMARK   75  A    between atoms: _199  and  _202
REMARK   76  A    between atoms: _202  and  _203
REMARK   77  A    between atoms: _208  and  _210
REMARK   78  A    between atoms: _210  and  _211
REMARK   79  A    between atoms: _210  and  _213
REMARK   80  A    between atoms: _213  and  _214
REMARK   81  A    between atoms: _217  and  _219
REMARK   82  A    between atoms: _219  and  _220
REMARK   83  A    between atoms: _219  and  _222
REMARK   84  A    between atoms: _222  and  _223
REMARK   85  A    between atoms: _229  and  _231
REMARK   86  A    between atoms: _231  and  _232
REMARK   87  A    between atoms: _234  and  _236
REMARK   88  A    between atoms: _236  and  _237
REMARK   89  A    between atoms: _236  and  _239
REMARK   90  A    between atoms: _239  and  _240
REMARK   91  A    between atoms: _240  and  _241
REMARK   92  A    between atoms: _243  and  _245
REMARK   93  A    between atoms: _245  and  _246
REMARK   94  A    between atoms: _245  and  _248
REMARK   95  A    between atoms: _248  and  _249
REMARK   96  A    between atoms: _252  and  _254
REMARK   97  A    between atoms: _254  and  _255
REMARK   98  A    between atoms: _254  and  _257
REMARK   99  A    between atoms: _257  and  _258
REMARK  100  A    between atoms: _258  and  _259
REMARK  101  A    between atoms: _259  and  _260
REMARK  102  A    between atoms: _260  and  _261
REMARK  103  A    between atoms: _265  and  _267
REMARK  104  A    between atoms: _267  and  _268
REMARK  105  A    between atoms: _267  and  _270
REMARK  106  A    between atoms: _275  and  _276
REMARK  107  A    between atoms: _275  and  _278
REMARK  108  A    between atoms: _278  and  _279
REMARK  109  A    between atoms: _281  and  _283
REMARK  110  A    between atoms: _283  and  _284
REMARK  111  A    between atoms: _283  and  _286
REMARK  112  A    between atoms: _289  and  _291
REMARK  113  A    between atoms: _291  and  _292
REMARK  114  A    between atoms: _294  and  _296
REMARK  115  A    between atoms: _296  and  _297
REMARK  116  A    between atoms: _300  and  _302
REMARK  117  A    between atoms: _302  and  _303
REMARK  118  A    between atoms: _302  and  _305
REMARK  119  A    between atoms: _305  and  _306
REMARK  120  A    between atoms: _309  and  _311
REMARK  121  A    between atoms: _311  and  _312
REMARK  122  A    between atoms: _311  and  _314
REMARK  123  A    between atoms: _317  and  _319
REMARK  124  A    between atoms: _319  and  _320
REMARK  125  A    between atoms: _319  and  _322
REMARK  126  A    between atoms: _322  and  _323
REMARK  127  A    between atoms: _326  and  _328
REMARK  128  A    between atoms: _328  and  _329
REMARK  129  A    between atoms: _332  and  _334
REMARK  130  A    between atoms: _334  and  _335
REMARK  131  A    between atoms: _334  and  _337
REMARK  132  A    between atoms: _337  and  _338
REMARK  133  A    between atoms: _338  and  _339
REMARK  134  A    between atoms: _342  and  _344
REMARK  135  A    between atoms: _344  and  _345
REMARK  136  A    between atoms: _344  and  _347
REMARK  137  A    between atoms: _347  and  _348
REMARK  138  A    between atoms: _348  and  _349
REMARK  139  A    between atoms: _352  and  _354
REMARK  140  A    between atoms: _354  and  _355
REMARK  141  A    between atoms: _354  and  _357
REMARK  142  A    between atoms: _357  and  _358
REMARK  143  A    between atoms: _361  and  _363
REMARK  144  A    between atoms: _363  and  _364
REMARK  145  A    between atoms: _363  and  _366
REMARK  146  A    between atoms: _366  and  _367
REMARK  147  A    between atoms: _367  and  _368
REMARK  148  A    between atoms: _368  and  _369
REMARK  149  A    between atoms: _378  and  _380
REMARK  150  A    between atoms: _380  and  _381
REMARK  151  A    between atoms: _380  and  _383
REMARK  152  A    between atoms: _383  and  _384
REMARK  153  A    between atoms: _387  and  _389
REMARK  154  A    between atoms: _389  and  _390
REMARK  155  A    between atoms: _389  and  _392
REMARK  156  A    between atoms: _392  and  _393
REMARK  157  A    between atoms: _396  and  _398
REMARK  158  A    between atoms: _398  and  _399
REMARK  159  A    between atoms: _403  and  _404
REMARK  160  A    between atoms: _409  and  _411
REMARK  161  A    between atoms: _411  and  _412
REMARK  162  A    between atoms: _411  and  _414
REMARK  163  A    between atoms: _414  and  _415
REMARK  164  A    between atoms: _420  and  _422
REMARK  165  A    between atoms: _422  and  _423
REMARK  166  A    between atoms: _422  and  _425
REMARK  167  A    between atoms: _425  and  _426
REMARK  168  A    between atoms: _433  and  _434
REMARK  169  A    between atoms: _439  and  _441
REMARK  170  A    between atoms: _441  and  _442
REMARK  171  A    between atoms: _441  and  _444
REMARK  172  A    between atoms: _444  and  _445
REMARK  173  A    between atoms: _448  and  _450
REMARK  174  A    between atoms: _450  and  _451
REMARK  175  A    between atoms: _450  and  _453
REMARK  176  A    between atoms: _453  and  _454
REMARK  177  A    between atoms: _457  and  _459
REMARK  178  A    between atoms: _459  and  _460
REMARK  179  A    between atoms: _459  and  _462
REMARK  180  A    between atoms: _462  and  _463
REMARK  181  A    between atoms: _463  and  _464
REMARK  182  A    between atoms: _468  and  _469
REMARK  183  A    between atoms: _468  and  _471
REMARK  184  A    between atoms: _471  and  _472
REMARK  185  A    between atoms: _472  and  _473
REMARK  186  A    between atoms: _478  and  _480
REMARK  187  A    between atoms: _480  and  _481
REMARK  188  A    between atoms: _480  and  _483
REMARK  189  A    between atoms: _483  and  _484
REMARK  190  A    between atoms: _484  and  _485
REMARK  191  A    between atoms: _488  and  _490
REMARK  192  A    between atoms: _490  and  _491
REMARK  193  A    between atoms: _490  and  _493
REMARK  194  A    between atoms: _493  and  _494
REMARK  195  A    between atoms: _497  and  _499
REMARK  196  A    between atoms: _499  and  _500
REMARK  197  A    between atoms: _499  and  _502
REMARK  198  A    between atoms: _502  and  _503
REMARK  199  A    between atoms: _506  and  _508
REMARK  200  A    between atoms: _508  and  _509
REMARK  201  A    between atoms: _508  and  _511
REMARK  202  A    between atoms: _511  and  _512
REMARK  203  A    between atoms: _520  and  _521
REMARK  204  A    between atoms: _520  and  _523
REMARK  205  A    between atoms: _523  and  _524
REMARK  206  A    between atoms: _524  and  _525
REMARK  207  A    between atoms: _528  and  _530
REMARK  208  A    between atoms: _530  and  _531
REMARK  209  A    between atoms: _530  and  _533
REMARK  210  A    between atoms: _533  and  _534
REMARK  211  A    between atoms: _539  and  _541
REMARK  212  A    between atoms: _541  and  _542
REMARK  213  A    between atoms: _541  and  _544
REMARK  214  A    between atoms: _544  and  _545
REMARK  215  A    between atoms: _545  and  _546
REMARK  216  A    between atoms: _546  and  _547
REMARK  217  A    between atoms: _556  and  _558
REMARK  218  A    between atoms: _558  and  _559
REMARK  219  A    between atoms: _558  and  _561
REMARK  220  A    between atoms: _561  and  _562
REMARK  221  A    between atoms: _565  and  _567
REMARK  222  A    between atoms: _567  and  _568
REMARK  223  A    between atoms: _567  and  _570
REMARK  224  A    between atoms: _570  and  _571
REMARK  225  A    between atoms: _574  and  _576
REMARK  226  A    between atoms: _576  and  _577
REMARK  227  A    between atoms: _576  and  _579
REMARK  228  A    between atoms: _579  and  _580
REMARK  229  A    between atoms: _580  and  _581
REMARK  230  A    between atoms: _581  and  _582
REMARK  231  A    between atoms: _591  and  _593
REMARK  232  A    between atoms: _593  and  _594
REMARK  233  A    between atoms: _593  and  _596
REMARK  234  A    between atoms: _596  and  _597
REMARK  235  A    between atoms: _597  and  _598
REMARK  236  A    between atoms: _598  and  _599
REMARK  237  A    between atoms: _608  and  _610
REMARK  238  A    between atoms: _610  and  _611
REMARK  239  A    between atoms: _610  and  _613
REMARK  240  A    between atoms: _613  and  _614
REMARK  241  A    between atoms: _614  and  _615
REMARK  242  A    between atoms: _615  and  _616
REMARK  243  A    between atoms: _625  and  _627
REMARK  244  A    between atoms: _627  and  _628
REMARK  245  A    between atoms: _627  and  _630
REMARK  246  A    between atoms: _630  and  _631
REMARK  247  A    between atoms: _634  and  _636
REMARK  248  A    between atoms: _636  and  _637
REMARK  249  A    between atoms: _636  and  _639
REMARK  250  A    between atoms: _639  and  _640
REMARK  251  A    between atoms: _640  and  _641
REMARK                            x       y       z     vdW  Elec       q    Type
REMARK                         _______ _______ _______ _____ _____    ______ ____
ROOT
ATOM      1  O   HOH     1     -33.743   4.896   0.687  0.00  0.00    +0.000 OA
ENDROOT
TORSDOF 0
REMARK  Name = ../refined-set-2016/3v4t/3v4t_pocket.pdb
REMARK  251 active torsions:
REMARK  status: ('A' for Active; 'I' for Inactive)
REMARK    1  A    between atoms: _1  and  _3
REMARK    2  A    between atoms: _3  and  _4
REMARK    3  A    between atoms: _3  and  _6
REMARK    4  A    between atoms: _6  and  _7
REMARK    5  A    between atoms: _7  and  _8
REMARK    6  A    between atoms: _8  and  _9
REMARK    7  A    between atoms: _9  and  _10
REMARK    8  A    between atoms: _16  and  _17
REMARK    9  A    between atoms: _16  and  _19
REMARK   10  A    between atoms: _19  and  _20
REMARK   11  A    between atoms: _25  and  _27
REMARK   12  A    between atoms: _27  and  _28
REMARK   13  A    between atoms: _31  and  _33
REMARK   14  A    between atoms: _33  and  _34
REMARK   15  A    between atoms: _37  and  _39
REMARK   16  A    between atoms: _39  and  _40
REMARK   17  A    between atoms: _39  and  _42
REMARK   18  A    between atoms: _42  and  _43
REMARK   19  A    between atoms: _47  and  _48
REMARK   20  A    between atoms: _53  and  _55
REMARK   21  A    between atoms: _55  and  _56
REMARK   22  A    between atoms: _55  and  _58
REMARK   23  A    between atoms: _58  and  _59
REMARK   24  A    between atoms: _62  and  _64
REMARK   25  A    between atoms: _64  and  _65
REMARK   26  A    between atoms: _64  and  _67
REMARK   27  A    between atoms: _67  and  _68
REMARK   28  A    between atoms: _68  and  _69
REMARK   29  A    between atoms: _73  and  _74
REMARK   30  A    between atoms: _73  and  _76
REMARK   31  A    between atoms: _76  and  _77
REMARK   32  A    between atoms: _77  and  _78
REMARK   33  A    between atoms: _78  and  _79
REMARK   34  A    between atoms: _88  and  _90
REMARK   35  A    between atoms: _90  and  _91
REMARK   36  A    between atoms: _94  and  _96
REMARK   37  A    between atoms: _96  and  _97
REMARK   38  A    between atoms: _96  and  _99
REMARK   39  A    between atoms: _99  and  _100
REMARK   40  A    between atoms: _102  and  _104
REMARK   41  A    between atoms: _104  and  _105
REMARK   42  A    between atoms: _104  and  _107
REMARK   43  A    between atoms: _107  and  _108
REMARK   44  A    between atoms: _113  and  _114
REMARK   45  A    between atoms: _113  and  _116
REMARK   46  A    between atoms: _116  and  _117
REMARK   47  A    between atoms: _127  and  _129
REMARK   48  A    between atoms: _129  and  _130
REMARK   49  A    between atoms: _129  and  _132
REMARK   50  A    between atoms: _132  and  _133
REMARK   51  A    between atoms: _136  and  _138
REMARK   52  A    between atoms: _138  and  _139
REMARK   53  A    between atoms: _141  and  _143
REMARK   54  A    between atoms: _143  and  _144
REMARK   55  A    between atoms: _147  and  _149
REMARK   56  A    between atoms: _149  and  _150
REMARK   57  A    between atoms: _149  and  _152
REMARK   58  A    between atoms: _152  and  _153
REMARK   59  A    between atoms: _153  and  _154
REMARK   60  A    between atoms: _154  and  _155
REMARK   61  A    between atoms: _165  and  _166
REMARK   62  A    between atoms: _171  and  _173
REMARK   63  A    between atoms: _173  and  _174
REMARK   64  A    between atoms: _173  and  _176
REMARK   65  A    between atoms: _179  and  _181
REMARK   66  A    between atoms: _181  and  _182
REMARK   67  A    between atoms: _181  and  _184
REMARK   68  A    between atoms: _184  and  _185
REMARK   69  A    between atoms: _188  and  _190
REMARK   70  A    between atoms: _190  and  _191
REMARK   71  A    between atoms: _190  and  _193
REMARK   72  A    between atoms: _193  and  _194
REMARK   73  A    between atoms: _197  and  _199
REMARK   74  A    between atoms: _199  and  _200
REMARK   75  A    between atoms: _199  and  _202
REMARK   76  A    between atoms: _202  and  _203
REMARK   77  A    between atoms: _208  and  _210
REMARK   78  A    between atoms: _210  and  _211
REMARK   79  A    between atoms: _210  and  _213
REMARK   80  A    between atoms: _213  and  _214
REMARK   81  A    between atoms: _217  and  _219
REMARK   82  A    between atoms: _219  and  _220
REMARK   83  A    between atoms: _219  and  _222
REMARK   84  A    between atoms: _222  and  _223
REMARK   85  A    between atoms: _229  and  _231
REMARK   86  A    between atoms: _231  and  _232
REMARK   87  A    between atoms: _234  and  _236
REMARK   88  A    between atoms: _236  and  _237
REMARK   89  A    between atoms: _236  and  _239
REMARK   90  A    between atoms: _239  and  _240
REMARK   91  A    between atoms: _240  and  _241
REMARK   92  A    between atoms: _243  and  _245
REMARK   93  A    between atoms: _245  and  _246
REMARK   94  A    between atoms: _245  and  _248
REMARK   95  A    between atoms: _248  and  _249
REMARK   96  A    between atoms: _252  and  _254
REMARK   97  A    between atoms: _254  and  _255
REMARK   98  A    between atoms: _254  and  _257
REMARK   99  A    between atoms: _257  and  _258
REMARK  100  A    between atoms: _258  and  _259
REMARK  101  A    between atoms: _259  and  _260
REMARK  102  A    between atoms: _260  and  _261
REMARK  103  A    between atoms: _265  and  _267
REMARK  104  A    between atoms: _267  and  _268
REMARK  105  A    between atoms: _267  and  _270
REMARK  106  A    between atoms: _275  and  _276
REMARK  107  A    between atoms: _275  and  _278
REMARK  108  A    between atoms: _278  and  _279
REMARK  109  A    between atoms: _281  and  _283
REMARK  110  A    between atoms: _283  and  _284
REMARK  111  A    between atoms: _283  and  _286
REMARK  112  A    between atoms: _289  and  _291
REMARK  113  A    between atoms: _291  and  _292
REMARK  114  A    between atoms: _294  and  _296
REMARK  115  A    between atoms: _296  and  _297
REMARK  116  A    between atoms: _300  and  _302
REMARK  117  A    between atoms: _302  and  _303
REMARK  118  A    between atoms: _302  and  _305
REMARK  119  A    between atoms: _305  and  _306
REMARK  120  A    between atoms: _309  and  _311
REMARK  121  A    between atoms: _311  and  _312
REMARK  122  A    between atoms: _311  and  _314
REMARK  123  A    between atoms: _317  and  _319
REMARK  124  A    between atoms: _319  and  _320
REMARK  125  A    between atoms: _319  and  _322
REMARK  126  A    between atoms: _322  and  _323
REMARK  127  A    between atoms: _326  and  _328
REMARK  128  A    between atoms: _328  and  _329
REMARK  129  A    between atoms: _332  and  _334
REMARK  130  A    between atoms: _334  and  _335
REMARK  131  A    between atoms: _334  and  _337
REMARK  132  A    between atoms: _337  and  _338
REMARK  133  A    between atoms: _338  and  _339
REMARK  134  A    between atoms: _342  and  _344
REMARK  135  A    between atoms: _344  and  _345
REMARK  136  A    between atoms: _344  and  _347
REMARK  137  A    between atoms: _347  and  _348
REMARK  138  A    between atoms: _348  and  _349
REMARK  139  A    between atoms: _352  and  _354
REMARK  140  A    between atoms: _354  and  _355
REMARK  141  A    between atoms: _354  and  _357
REMARK  142  A    between atoms: _357  and  _358
REMARK  143  A    between atoms: _361  and  _363
REMARK  144  A    between atoms: _363  and  _364
REMARK  145  A    between atoms: _363  and  _366
REMARK  146  A    between atoms: _366  and  _367
REMARK  147  A    between atoms: _367  and  _368
REMARK  148  A    between atoms: _368  and  _369
REMARK  149  A    between atoms: _378  and  _380
REMARK  150  A    between atoms: _380  and  _381
REMARK  151  A    between atoms: _380  and  _383
REMARK  152  A    between atoms: _383  and  _384
REMARK  153  A    between atoms: _387  and  _389
REMARK  154  A    between atoms: _389  and  _390
REMARK  155  A    between atoms: _389  and  _392
REMARK  156  A    between atoms: _392  and  _393
REMARK  157  A    between atoms: _396  and  _398
REMARK  158  A    between atoms: _398  and  _399
REMARK  159  A    between atoms: _403  and  _404
REMARK  160  A    between atoms: _409  and  _411
REMARK  161  A    between atoms: _411  and  _412
REMARK  162  A    between atoms: _411  and  _414
REMARK  163  A    between atoms: _414  and  _415
REMARK  164  A    between atoms: _420  and  _422
REMARK  165  A    between atoms: _422  and  _423
REMARK  166  A    between atoms: _422  and  _425
REMARK  167  A    between atoms: _425  and  _426
REMARK  168  A    between atoms: _433  and  _434
REMARK  169  A    between atoms: _439  and  _441
REMARK  170  A    between atoms: _441  and  _442
REMARK  171  A    between atoms: _441  and  _444
REMARK  172  A    between atoms: _444  and  _445
REMARK  173  A    between atoms: _448  and  _450
REMARK  174  A    between atoms: _450  and  _451
REMARK  175  A    between atoms: _450  and  _453
REMARK  176  A    between atoms: _453  and  _454
REMARK  177  A    between atoms: _457  and  _459
REMARK  178  A    between atoms: _459  and  _460
REMARK  179  A    between atoms: _459  and  _462
REMARK  180  A    between atoms: _462  and  _463
REMARK  181  A    between atoms: _463  and  _464
REMARK  182  A    between atoms: _468  and  _469
REMARK  183  A    between atoms: _468  and  _471
REMARK  184  A    between atoms: _471  and  _472
REMARK  185  A    between atoms: _472  and  _473
REMARK  186  A    between atoms: _478  and  _480
REMARK  187  A    between atoms: _480  and  _481
REMARK  188  A    between atoms: _480  and  _483
REMARK  189  A    between atoms: _483  and  _484
REMARK  190  A    between atoms: _484  and  _485
REMARK  191  A    between atoms: _488  and  _490
REMARK  192  A    between atoms: _490  and  _491
REMARK  193  A    between atoms: _490  and  _493
REMARK  194  A    between atoms: _493  and  _494
REMARK  195  A    between atoms: _497  and  _499
REMARK  196  A    between atoms: _499  and  _500
REMARK  197  A    between atoms: _499  and  _502
REMARK  198  A    between atoms: _502  and  _503
REMARK  199  A    between atoms: _506  and  _508
REMARK  200  A    between atoms: _508  and  _509
REMARK  201  A    between atoms: _508  and  _511
REMARK  202  A    between atoms: _511  and  _512
REMARK  203  A    between atoms: _520  and  _521
REMARK  204  A    between atoms: _520  and  _523
REMARK  205  A    between atoms: _523  and  _524
REMARK  206  A    between atoms: _524  and  _525
REMARK  207  A    between atoms: _528  and  _530
REMARK  208  A    between atoms: _530  and  _531
REMARK  209  A    between atoms: _530  and  _533
REMARK  210  A    between atoms: _533  and  _534
REMARK  211  A    between atoms: _539  and  _541
REMARK  212  A    between atoms: _541  and  _542
REMARK  213  A    between atoms: _541  and  _544
REMARK  214  A    between atoms: _544  and  _545
REMARK  215  A    between atoms: _545  and  _546
REMARK  216  A    between atoms: _546  and  _547
REMARK  217  A    between atoms: _556  and  _558
REMARK  218  A    between atoms: _558  and  _559
REMARK  219  A    between atoms: _558  and  _561
REMARK  220  A    between atoms: _561  and  _562
REMARK  221  A    between atoms: _565  and  _567
REMARK  222  A    between atoms: _567  and  _568
REMARK  223  A    between atoms: _567  and  _570
REMARK  224  A    between atoms: _570  and  _571
REMARK  225  A    between atoms: _574  and  _576
REMARK  226  A    between atoms: _576  and  _577
REMARK  227  A    between atoms: _576  and  _579
REMARK  228  A    between atoms: _579  and  _580
REMARK  229  A    between atoms: _580  and  _581
REMARK  230  A    between atoms: _581  and  _582
REMARK  231  A    between atoms: _591  and  _593
REMARK  232  A    between atoms: _593  and  _594
REMARK  233  A    between atoms: _593  and  _596
REMARK  234  A    between atoms: _596  and  _597
REMARK  235  A    between atoms: _597  and  _598
REMARK  236  A    between atoms: _598  and  _599
REMARK  237  A    between atoms: _608  and  _610
REMARK  238  A    between atoms: _610  and  _611
REMARK  239  A    between atoms: _610  and  _613
REMARK  240  A    between atoms: _613  and  _614
REMARK  241  A    between atoms: _614  and  _615
REMARK  242  A    between atoms: _615  and  _616
REMARK  243  A    between atoms: _625  and  _627
REMARK  244  A    between atoms: _627  and  _628
REMARK  245  A    between atoms: _627  and  _630
REMARK  246  A    between atoms: _630  and  _631
REMARK  247  A    between atoms: _634  and  _636
REMARK  248  A    between atoms: _636  and  _637
REMARK  249  A    between atoms: _636  and  _639
REMARK  250  A    between atoms: _639  and  _640
REMARK  251  A    between atoms: _640  and  _641
REMARK                            x       y       z     vdW  Elec       q    Type
REMARK                         _______ _______ _______ _____ _____    ______ ____
ROOT
ATOM      1  O   HOH     1     -36.395  -3.880  11.802  0.00  0.00    +0.000 OA
ENDROOT
TORSDOF 0
REMARK  Name = ../refined-set-2016/3v4t/3v4t_pocket.pdb
REMARK  251 active torsions:
REMARK  status: ('A' for Active; 'I' for Inactive)
REMARK    1  A    between atoms: _1  and  _3
REMARK    2  A    between atoms: _3  and  _4
REMARK    3  A    between atoms: _3  and  _6
REMARK    4  A    between atoms: _6  and  _7
REMARK    5  A    between atoms: _7  and  _8
REMARK    6  A    between atoms: _8  and  _9
REMARK    7  A    between atoms: _9  and  _10
REMARK    8  A    between atoms: _16  and  _17
REMARK    9  A    between atoms: _16  and  _19
REMARK   10  A    between atoms: _19  and  _20
REMARK   11  A    between atoms: _25  and  _27
REMARK   12  A    between atoms: _27  and  _28
REMARK   13  A    between atoms: _31  and  _33
REMARK   14  A    between atoms: _33  and  _34
REMARK   15  A    between atoms: _37  and  _39
REMARK   16  A    between atoms: _39  and  _40
REMARK   17  A    between atoms: _39  and  _42
REMARK   18  A    between atoms: _42  and  _43
REMARK   19  A    between atoms: _47  and  _48
REMARK   20  A    between atoms: _53  and  _55
REMARK   21  A    between atoms: _55  and  _56
REMARK   22  A    between atoms: _55  and  _58
REMARK   23  A    between atoms: _58  and  _59
REMARK   24  A    between atoms: _62  and  _64
REMARK   25  A    between atoms: _64  and  _65
REMARK   26  A    between atoms: _64  and  _67
REMARK   27  A    between atoms: _67  and  _68
REMARK   28  A    between atoms: _68  and  _69
REMARK   29  A    between atoms: _73  and  _74
REMARK   30  A    between atoms: _73  and  _76
REMARK   31  A    between atoms: _76  and  _77
REMARK   32  A    between atoms: _77  and  _78
REMARK   33  A    between atoms: _78  and  _79
REMARK   34  A    between atoms: _88  and  _90
REMARK   35  A    between atoms: _90  and  _91
REMARK   36  A    between atoms: _94  and  _96
REMARK   37  A    between atoms: _96  and  _97
REMARK   38  A    between atoms: _96  and  _99
REMARK   39  A    between atoms: _99  and  _100
REMARK   40  A    between atoms: _102  and  _104
REMARK   41  A    between atoms: _104  and  _105
REMARK   42  A    between atoms: _104  and  _107
REMARK   43  A    between atoms: _107  and  _108
REMARK   44  A    between atoms: _113  and  _114
REMARK   45  A    between atoms: _113  and  _116
REMARK   46  A    between atoms: _116  and  _117
REMARK   47  A    between atoms: _127  and  _129
REMARK   48  A    between atoms: _129  and  _130
REMARK   49  A    between atoms: _129  and  _132
REMARK   50  A    between atoms: _132  and  _133
REMARK   51  A    between atoms: _136  and  _138
REMARK   52  A    between atoms: _138  and  _139
REMARK   53  A    between atoms: _141  and  _143
REMARK   54  A    between atoms: _143  and  _144
REMARK   55  A    between atoms: _147  and  _149
REMARK   56  A    between atoms: _149  and  _150
REMARK   57  A    between atoms: _149  and  _152
REMARK   58  A    between atoms: _152  and  _153
REMARK   59  A    between atoms: _153  and  _154
REMARK   60  A    between atoms: _154  and  _155
REMARK   61  A    between atoms: _165  and  _166
REMARK   62  A    between atoms: _171  and  _173
REMARK   63  A    between atoms: _173  and  _174
REMARK   64  A    between atoms: _173  and  _176
REMARK   65  A    between atoms: _179  and  _181
REMARK   66  A    between atoms: _181  and  _182
REMARK   67  A    between atoms: _181  and  _184
REMARK   68  A    between atoms: _184  and  _185
REMARK   69  A    between atoms: _188  and  _190
REMARK   70  A    between atoms: _190  and  _191
REMARK   71  A    between atoms: _190  and  _193
REMARK   72  A    between atoms: _193  and  _194
REMARK   73  A    between atoms: _197  and  _199
REMARK   74  A    between atoms: _199  and  _200
REMARK   75  A    between atoms: _199  and  _202
REMARK   76  A    between atoms: _202  and  _203
REMARK   77  A    between atoms: _208  and  _210
REMARK   78  A    between atoms: _210  and  _211
REMARK   79  A    between atoms: _210  and  _213
REMARK   80  A    between atoms: _213  and  _214
REMARK   81  A    between atoms: _217  and  _219
REMARK   82  A    between atoms: _219  and  _220
REMARK   83  A    between atoms: _219  and  _222
REMARK   84  A    between atoms: _222  and  _223
REMARK   85  A    between atoms: _229  and  _231
REMARK   86  A    between atoms: _231  and  _232
REMARK   87  A    between atoms: _234  and  _236
REMARK   88  A    between atoms: _236  and  _237
REMARK   89  A    between atoms: _236  and  _239
REMARK   90  A    between atoms: _239  and  _240
REMARK   91  A    between atoms: _240  and  _241
REMARK   92  A    between atoms: _243  and  _245
REMARK   93  A    between atoms: _245  and  _246
REMARK   94  A    between atoms: _245  and  _248
REMARK   95  A    between atoms: _248  and  _249
REMARK   96  A    between atoms: _252  and  _254
REMARK   97  A    between atoms: _254  and  _255
REMARK   98  A    between atoms: _254  and  _257
REMARK   99  A    between atoms: _257  and  _258
REMARK  100  A    between atoms: _258  and  _259
REMARK  101  A    between atoms: _259  and  _260
REMARK  102  A    between atoms: _260  and  _261
REMARK  103  A    between atoms: _265  and  _267
REMARK  104  A    between atoms: _267  and  _268
REMARK  105  A    between atoms: _267  and  _270
REMARK  106  A    between atoms: _275  and  _276
REMARK  107  A    between atoms: _275  and  _278
REMARK  108  A    between atoms: _278  and  _279
REMARK  109  A    between atoms: _281  and  _283
REMARK  110  A    between atoms: _283  and  _284
REMARK  111  A    between atoms: _283  and  _286
REMARK  112  A    between atoms: _289  and  _291
REMARK  113  A    between atoms: _291  and  _292
REMARK  114  A    between atoms: _294  and  _296
REMARK  115  A    between atoms: _296  and  _297
REMARK  116  A    between atoms: _300  and  _302
REMARK  117  A    between atoms: _302  and  _303
REMARK  118  A    between atoms: _302  and  _305
REMARK  119  A    between atoms: _305  and  _306
REMARK  120  A    between atoms: _309  and  _311
REMARK  121  A    between atoms: _311  and  _312
REMARK  122  A    between atoms: _311  and  _314
REMARK  123  A    between atoms: _317  and  _319
REMARK  124  A    between atoms: _319  and  _320
REMARK  125  A    between atoms: _319  and  _322
REMARK  126  A    between atoms: _322  and  _323
REMARK  127  A    between atoms: _326  and  _328
REMARK  128  A    between atoms: _328  and  _329
REMARK  129  A    between atoms: _332  and  _334
REMARK  130  A    between atoms: _334  and  _335
REMARK  131  A    between atoms: _334  and  _337
REMARK  132  A    between atoms: _337  and  _338
REMARK  133  A    between atoms: _338  and  _339
REMARK  134  A    between atoms: _342  and  _344
REMARK  135  A    between atoms: _344  and  _345
REMARK  136  A    between atoms: _344  and  _347
REMARK  137  A    between atoms: _347  and  _348
REMARK  138  A    between atoms: _348  and  _349
REMARK  139  A    between atoms: _352  and  _354
REMARK  140  A    between atoms: _354  and  _355
REMARK  141  A    between atoms: _354  and  _357
REMARK  142  A    between atoms: _357  and  _358
REMARK  143  A    between atoms: _361  and  _363
REMARK  144  A    between atoms: _363  and  _364
REMARK  145  A    between atoms: _363  and  _366
REMARK  146  A    between atoms: _366  and  _367
REMARK  147  A    between atoms: _367  and  _368
REMARK  148  A    between atoms: _368  and  _369
REMARK  149  A    between atoms: _378  and  _380
REMARK  150  A    between atoms: _380  and  _381
REMARK  151  A    between atoms: _380  and  _383
REMARK  152  A    between atoms: _383  and  _384
REMARK  153  A    between atoms: _387  and  _389
REMARK  154  A    between atoms: _389  and  _390
REMARK  155  A    between atoms: _389  and  _392
REMARK  156  A    between atoms: _392  and  _393
REMARK  157  A    between atoms: _396  and  _398
REMARK  158  A    between atoms: _398  and  _399
REMARK  159  A    between atoms: _403  and  _404
REMARK  160  A    between atoms: _409  and  _411
REMARK  161  A    between atoms: _411  and  _412
REMARK  162  A    between atoms: _411  and  _414
REMARK  163  A    between atoms: _414  and  _415
REMARK  164  A    between atoms: _420  and  _422
REMARK  165  A    between atoms: _422  and  _423
REMARK  166  A    between atoms: _422  and  _425
REMARK  167  A    between atoms: _425  and  _426
REMARK  168  A    between atoms: _433  and  _434
REMARK  169  A    between atoms: _439  and  _441
REMARK  170  A    between atoms: _441  and  _442
REMARK  171  A    between atoms: _441  and  _444
REMARK  172  A    between atoms: _444  and  _445
REMARK  173  A    between atoms: _448  and  _450
REMARK  174  A    between atoms: _450  and  _451
REMARK  175  A    between atoms: _450  and  _453
REMARK  176  A    between atoms: _453  and  _454
REMARK  177  A    between atoms: _457  and  _459
REMARK  178  A    between atoms: _459  and  _460
REMARK  179  A    between atoms: _459  and  _462
REMARK  180  A    between atoms: _462  and  _463
REMARK  181  A    between atoms: _463  and  _464
REMARK  182  A    between atoms: _468  and  _469
REMARK  183  A    between atoms: _468  and  _471
REMARK  184  A    between atoms: _471  and  _472
REMARK  185  A    between atoms: _472  and  _473
REMARK  186  A    between atoms: _478  and  _480
REMARK  187  A    between atoms: _480  and  _481
REMARK  188  A    between atoms: _480  and  _483
REMARK  189  A    between atoms: _483  and  _484
REMARK  190  A    between atoms: _484  and  _485
REMARK  191  A    between atoms: _488  and  _490
REMARK  192  A    between atoms: _490  and  _491
REMARK  193  A    between atoms: _490  and  _493
REMARK  194  A    between atoms: _493  and  _494
REMARK  195  A    between atoms: _497  and  _499
REMARK  196  A    between atoms: _499  and  _500
REMARK  197  A    between atoms: _499  and  _502
REMARK  198  A    between atoms: _502  and  _503
REMARK  199  A    between atoms: _506  and  _508
REMARK  200  A    between atoms: _508  and  _509
REMARK  201  A    between atoms: _508  and  _511
REMARK  202  A    between atoms: _511  and  _512
REMARK  203  A    between atoms: _520  and  _521
REMARK  204  A    between atoms: _520  and  _523
REMARK  205  A    between atoms: _523  and  _524
REMARK  206  A    between atoms: _524  and  _525
REMARK  207  A    between atoms: _528  and  _530
REMARK  208  A    between atoms: _530  and  _531
REMARK  209  A    between atoms: _530  and  _533
REMARK  210  A    between atoms: _533  and  _534
REMARK  211  A    between atoms: _539  and  _541
REMARK  212  A    between atoms: _541  and  _542
REMARK  213  A    between atoms: _541  and  _544
REMARK  214  A    between atoms: _544  and  _545
REMARK  215  A    between atoms: _545  and  _546
REMARK  216  A    between atoms: _546  and  _547
REMARK  217  A    between atoms: _556  and  _558
REMARK  218  A    between atoms: _558  and  _559
REMARK  219  A    between atoms: _558  and  _561
REMARK  220  A    between atoms: _561  and  _562
REMARK  221  A    between atoms: _565  and  _567
REMARK  222  A    between atoms: _567  and  _568
REMARK  223  A    between atoms: _567  and  _570
REMARK  224  A    between atoms: _570  and  _571
REMARK  225  A    between atoms: _574  and  _576
REMARK  226  A    between atoms: _576  and  _577
REMARK  227  A    between atoms: _576  and  _579
REMARK  228  A    between atoms: _579  and  _580
REMARK  229  A    between atoms: _580  and  _581
REMARK  230  A    between atoms: _581  and  _582
REMARK  231  A    between atoms: _591  and  _593
REMARK  232  A    between atoms: _593  and  _594
REMARK  233  A    between atoms: _593  and  _596
REMARK  234  A    between atoms: _596  and  _597
REMARK  235  A    between atoms: _597  and  _598
REMARK  236  A    between atoms: _598  and  _599
REMARK  237  A    between atoms: _608  and  _610
REMARK  238  A    between atoms: _610  and  _611
REMARK  239  A    between atoms: _610  and  _613
REMARK  240  A    between atoms: _613  and  _614
REMARK  241  A    between atoms: _614  and  _615
REMARK  242  A    between atoms: _615  and  _616
REMARK  243  A    between atoms: _625  and  _627
REMARK  244  A    between atoms: _627  and  _628
REMARK  245  A    between atoms: _627  and  _630
REMARK  246  A    between atoms: _630  and  _631
REMARK  247  A    between atoms: _634  and  _636
REMARK  248  A    between atoms: _636  and  _637
REMARK  249  A    between atoms: _636  and  _639
REMARK  250  A    between atoms: _639  and  _640
REMARK  251  A    between atoms: _640  and  _641
REMARK                            x       y       z     vdW  Elec       q    Type
REMARK                         _______ _______ _______ _____ _____    ______ ____
ROOT
ATOM      1  O   HOH     1     -43.372  -1.027   4.312  0.00  0.00    +0.000 OA
ENDROOT
TORSDOF 0
REMARK  Name = ../refined-set-2016/3v4t/3v4t_pocket.pdb
REMARK  251 active torsions:
REMARK  status: ('A' for Active; 'I' for Inactive)
REMARK    1  A    between atoms: _1  and  _3
REMARK    2  A    between atoms: _3  and  _4
REMARK    3  A    between atoms: _3  and  _6
REMARK    4  A    between atoms: _6  and  _7
REMARK    5  A    between atoms: _7  and  _8
REMARK    6  A    between atoms: _8  and  _9
REMARK    7  A    between atoms: _9  and  _10
REMARK    8  A    between atoms: _16  and  _17
REMARK    9  A    between atoms: _16  and  _19
REMARK   10  A    between atoms: _19  and  _20
REMARK   11  A    between atoms: _25  and  _27
REMARK   12  A    between atoms: _27  and  _28
REMARK   13  A    between atoms: _31  and  _33
REMARK   14  A    between atoms: _33  and  _34
REMARK   15  A    between atoms: _37  and  _39
REMARK   16  A    between atoms: _39  and  _40
REMARK   17  A    between atoms: _39  and  _42
REMARK   18  A    between atoms: _42  and  _43
REMARK   19  A    between atoms: _47  and  _48
REMARK   20  A    between atoms: _53  and  _55
REMARK   21  A    between atoms: _55  and  _56
REMARK   22  A    between atoms: _55  and  _58
REMARK   23  A    between atoms: _58  and  _59
REMARK   24  A    between atoms: _62  and  _64
REMARK   25  A    between atoms: _64  and  _65
REMARK   26  A    between atoms: _64  and  _67
REMARK   27  A    between atoms: _67  and  _68
REMARK   28  A    between atoms: _68  and  _69
REMARK   29  A    between atoms: _73  and  _74
REMARK   30  A    between atoms: _73  and  _76
REMARK   31  A    between atoms: _76  and  _77
REMARK   32  A    between atoms: _77  and  _78
REMARK   33  A    between atoms: _78  and  _79
REMARK   34  A    between atoms: _88  and  _90
REMARK   35  A    between atoms: _90  and  _91
REMARK   36  A    between atoms: _94  and  _96
REMARK   37  A    between atoms: _96  and  _97
REMARK   38  A    between atoms: _96  and  _99
REMARK   39  A    between atoms: _99  and  _100
REMARK   40  A    between atoms: _102  and  _104
REMARK   41  A    between atoms: _104  and  _105
REMARK   42  A    between atoms: _104  and  _107
REMARK   43  A    between atoms: _107  and  _108
REMARK   44  A    between atoms: _113  and  _114
REMARK   45  A    between atoms: _113  and  _116
REMARK   46  A    between atoms: _116  and  _117
REMARK   47  A    between atoms: _127  and  _129
REMARK   48  A    between atoms: _129  and  _130
REMARK   49  A    between atoms: _129  and  _132
REMARK   50  A    between atoms: _132  and  _133
REMARK   51  A    between atoms: _136  and  _138
REMARK   52  A    between atoms: _138  and  _139
REMARK   53  A    between atoms: _141  and  _143
REMARK   54  A    between atoms: _143  and  _144
REMARK   55  A    between atoms: _147  and  _149
REMARK   56  A    between atoms: _149  and  _150
REMARK   57  A    between atoms: _149  and  _152
REMARK   58  A    between atoms: _152  and  _153
REMARK   59  A    between atoms: _153  and  _154
REMARK   60  A    between atoms: _154  and  _155
REMARK   61  A    between atoms: _165  and  _166
REMARK   62  A    between atoms: _171  and  _173
REMARK   63  A    between atoms: _173  and  _174
REMARK   64  A    between atoms: _173  and  _176
REMARK   65  A    between atoms: _179  and  _181
REMARK   66  A    between atoms: _181  and  _182
REMARK   67  A    between atoms: _181  and  _184
REMARK   68  A    between atoms: _184  and  _185
REMARK   69  A    between atoms: _188  and  _190
REMARK   70  A    between atoms: _190  and  _191
REMARK   71  A    between atoms: _190  and  _193
REMARK   72  A    between atoms: _193  and  _194
REMARK   73  A    between atoms: _197  and  _199
REMARK   74  A    between atoms: _199  and  _200
REMARK   75  A    between atoms: _199  and  _202
REMARK   76  A    between atoms: _202  and  _203
REMARK   77  A    between atoms: _208  and  _210
REMARK   78  A    between atoms: _210  and  _211
REMARK   79  A    between atoms: _210  and  _213
REMARK   80  A    between atoms: _213  and  _214
REMARK   81  A    between atoms: _217  and  _219
REMARK   82  A    between atoms: _219  and  _220
REMARK   83  A    between atoms: _219  and  _222
REMARK   84  A    between atoms: _222  and  _223
REMARK   85  A    between atoms: _229  and  _231
REMARK   86  A    between atoms: _231  and  _232
REMARK   87  A    between atoms: _234  and  _236
REMARK   88  A    between atoms: _236  and  _237
REMARK   89  A    between atoms: _236  and  _239
REMARK   90  A    between atoms: _239  and  _240
REMARK   91  A    between atoms: _240  and  _241
REMARK   92  A    between atoms: _243  and  _245
REMARK   93  A    between atoms: _245  and  _246
REMARK   94  A    between atoms: _245  and  _248
REMARK   95  A    between atoms: _248  and  _249
REMARK   96  A    between atoms: _252  and  _254
REMARK   97  A    between atoms: _254  and  _255
REMARK   98  A    between atoms: _254  and  _257
REMARK   99  A    between atoms: _257  and  _258
REMARK  100  A    between atoms: _258  and  _259
REMARK  101  A    between atoms: _259  and  _260
REMARK  102  A    between atoms: _260  and  _261
REMARK  103  A    between atoms: _265  and  _267
REMARK  104  A    between atoms: _267  and  _268
REMARK  105  A    between atoms: _267  and  _270
REMARK  106  A    between atoms: _275  and  _276
REMARK  107  A    between atoms: _275  and  _278
REMARK  108  A    between atoms: _278  and  _279
REMARK  109  A    between atoms: _281  and  _283
REMARK  110  A    between atoms: _283  and  _284
REMARK  111  A    between atoms: _283  and  _286
REMARK  112  A    between atoms: _289  and  _291
REMARK  113  A    between atoms: _291  and  _292
REMARK  114  A    between atoms: _294  and  _296
REMARK  115  A    between atoms: _296  and  _297
REMARK  116  A    between atoms: _300  and  _302
REMARK  117  A    between atoms: _302  and  _303
REMARK  118  A    between atoms: _302  and  _305
REMARK  119  A    between atoms: _305  and  _306
REMARK  120  A    between atoms: _309  and  _311
REMARK  121  A    between atoms: _311  and  _312
REMARK  122  A    between atoms: _311  and  _314
REMARK  123  A    between atoms: _317  and  _319
REMARK  124  A    between atoms: _319  and  _320
REMARK  125  A    between atoms: _319  and  _322
REMARK  126  A    between atoms: _322  and  _323
REMARK  127  A    between atoms: _326  and  _328
REMARK  128  A    between atoms: _328  and  _329
REMARK  129  A    between atoms: _332  and  _334
REMARK  130  A    between atoms: _334  and  _335
REMARK  131  A    between atoms: _334  and  _337
REMARK  132  A    between atoms: _337  and  _338
REMARK  133  A    between atoms: _338  and  _339
REMARK  134  A    between atoms: _342  and  _344
REMARK  135  A    between atoms: _344  and  _345
REMARK  136  A    between atoms: _344  and  _347
REMARK  137  A    between atoms: _347  and  _348
REMARK  138  A    between atoms: _348  and  _349
REMARK  139  A    between atoms: _352  and  _354
REMARK  140  A    between atoms: _354  and  _355
REMARK  141  A    between atoms: _354  and  _357
REMARK  142  A    between atoms: _357  and  _358
REMARK  143  A    between atoms: _361  and  _363
REMARK  144  A    between atoms: _363  and  _364
REMARK  145  A    between atoms: _363  and  _366
REMARK  146  A    between atoms: _366  and  _367
REMARK  147  A    between atoms: _367  and  _368
REMARK  148  A    between atoms: _368  and  _369
REMARK  149  A    between atoms: _378  and  _380
REMARK  150  A    between atoms: _380  and  _381
REMARK  151  A    between atoms: _380  and  _383
REMARK  152  A    between atoms: _383  and  _384
REMARK  153  A    between atoms: _387  and  _389
REMARK  154  A    between atoms: _389  and  _390
REMARK  155  A    between atoms: _389  and  _392
REMARK  156  A    between atoms: _392  and  _393
REMARK  157  A    between atoms: _396  and  _398
REMARK  158  A    between atoms: _398  and  _399
REMARK  159  A    between atoms: _403  and  _404
REMARK  160  A    between atoms: _409  and  _411
REMARK  161  A    between atoms: _411  and  _412
REMARK  162  A    between atoms: _411  and  _414
REMARK  163  A    between atoms: _414  and  _415
REMARK  164  A    between atoms: _420  and  _422
REMARK  165  A    between atoms: _422  and  _423
REMARK  166  A    between atoms: _422  and  _425
REMARK  167  A    between atoms: _425  and  _426
REMARK  168  A    between atoms: _433  and  _434
REMARK  169  A    between atoms: _439  and  _441
REMARK  170  A    between atoms: _441  and  _442
REMARK  171  A    between atoms: _441  and  _444
REMARK  172  A    between atoms: _444  and  _445
REMARK  173  A    between atoms: _448  and  _450
REMARK  174  A    between atoms: _450  and  _451
REMARK  175  A    between atoms: _450  and  _453
REMARK  176  A    between atoms: _453  and  _454
REMARK  177  A    between atoms: _457  and  _459
REMARK  178  A    between atoms: _459  and  _460
REMARK  179  A    between atoms: _459  and  _462
REMARK  180  A    between atoms: _462  and  _463
REMARK  181  A    between atoms: _463  and  _464
REMARK  182  A    between atoms: _468  and  _469
REMARK  183  A    between atoms: _468  and  _471
REMARK  184  A    between atoms: _471  and  _472
REMARK  185  A    between atoms: _472  and  _473
REMARK  186  A    between atoms: _478  and  _480
REMARK  187  A    between atoms: _480  and  _481
REMARK  188  A    between atoms: _480  and  _483
REMARK  189  A    between atoms: _483  and  _484
REMARK  190  A    between atoms: _484  and  _485
REMARK  191  A    between atoms: _488  and  _490
REMARK  192  A    between atoms: _490  and  _491
REMARK  193  A    between atoms: _490  and  _493
REMARK  194  A    between atoms: _493  and  _494
REMARK  195  A    between atoms: _497  and  _499
REMARK  196  A    between atoms: _499  and  _500
REMARK  197  A    between atoms: _499  and  _502
REMARK  198  A    between atoms: _502  and  _503
REMARK  199  A    between atoms: _506  and  _508
REMARK  200  A    between atoms: _508  and  _509
REMARK  201  A    between atoms: _508  and  _511
REMARK  202  A    between atoms: _511  and  _512
REMARK  203  A    between atoms: _520  and  _521
REMARK  204  A    between atoms: _520  and  _523
REMARK  205  A    between atoms: _523  and  _524
REMARK  206  A    between atoms: _524  and  _525
REMARK  207  A    between atoms: _528  and  _530
REMARK  208  A    between atoms: _530  and  _531
REMARK  209  A    between atoms: _530  and  _533
REMARK  210  A    between atoms: _533  and  _534
REMARK  211  A    between atoms: _539  and  _541
REMARK  212  A    between atoms: _541  and  _542
REMARK  213  A    between atoms: _541  and  _544
REMARK  214  A    between atoms: _544  and  _545
REMARK  215  A    between atoms: _545  and  _546
REMARK  216  A    between atoms: _546  and  _547
REMARK  217  A    between atoms: _556  and  _558
REMARK  218  A    between atoms: _558  and  _559
REMARK  219  A    between atoms: _558  and  _561
REMARK  220  A    between atoms: _561  and  _562
REMARK  221  A    between atoms: _565  and  _567
REMARK  222  A    between atoms: _567  and  _568
REMARK  223  A    between atoms: _567  and  _570
REMARK  224  A    between atoms: _570  and  _571
REMARK  225  A    between atoms: _574  and  _576
REMARK  226  A    between atoms: _576  and  _577
REMARK  227  A    between atoms: _576  and  _579
REMARK  228  A    between atoms: _579  and  _580
REMARK  229  A    between atoms: _580  and  _581
REMARK  230  A    between atoms: _581  and  _582
REMARK  231  A    between atoms: _591  and  _593
REMARK  232  A    between atoms: _593  and  _594
REMARK  233  A    between atoms: _593  and  _596
REMARK  234  A    between atoms: _596  and  _597
REMARK  235  A    between atoms: _597  and  _598
REMARK  236  A    between atoms: _598  and  _599
REMARK  237  A    between atoms: _608  and  _610
REMARK  238  A    between atoms: _610  and  _611
REMARK  239  A    between atoms: _610  and  _613
REMARK  240  A    between atoms: _613  and  _614
REMARK  241  A    between atoms: _614  and  _615
REMARK  242  A    between atoms: _615  and  _616
REMARK  243  A    between atoms: _625  and  _627
REMARK  244  A    between atoms: _627  and  _628
REMARK  245  A    between atoms: _627  and  _630
REMARK  246  A    between atoms: _630  and  _631
REMARK  247  A    between atoms: _634  and  _636
REMARK  248  A    between atoms: _636  and  _637
REMARK  249  A    between atoms: _636  and  _639
REMARK  250  A    between atoms: _639  and  _640
REMARK  251  A    between atoms: _640  and  _641
REMARK                            x       y       z     vdW  Elec       q    Type
REMARK                         _______ _______ _______ _____ _____    ______ ____
ROOT
ATOM      1  O   HOH     1     -44.253   3.513   8.906  0.00  0.00    +0.000 OA
ENDROOT
TORSDOF 0
REMARK  Name = ../refined-set-2016/3v4t/3v4t_pocket.pdb
REMARK  251 active torsions:
REMARK  status: ('A' for Active; 'I' for Inactive)
REMARK    1  A    between atoms: _1  and  _3
REMARK    2  A    between atoms: _3  and  _4
REMARK    3  A    between atoms: _3  and  _6
REMARK    4  A    between atoms: _6  and  _7
REMARK    5  A    between atoms: _7  and  _8
REMARK    6  A    between atoms: _8  and  _9
REMARK    7  A    between atoms: _9  and  _10
REMARK    8  A    between atoms: _16  and  _17
REMARK    9  A    between atoms: _16  and  _19
REMARK   10  A    between atoms: _19  and  _20
REMARK   11  A    between atoms: _25  and  _27
REMARK   12  A    between atoms: _27  and  _28
REMARK   13  A    between atoms: _31  and  _33
REMARK   14  A    between atoms: _33  and  _34
REMARK   15  A    between atoms: _37  and  _39
REMARK   16  A    between atoms: _39  and  _40
REMARK   17  A    between atoms: _39  and  _42
REMARK   18  A    between atoms: _42  and  _43
REMARK   19  A    between atoms: _47  and  _48
REMARK   20  A    between atoms: _53  and  _55
REMARK   21  A    between atoms: _55  and  _56
REMARK   22  A    between atoms: _55  and  _58
REMARK   23  A    between atoms: _58  and  _59
REMARK   24  A    between atoms: _62  and  _64
REMARK   25  A    between atoms: _64  and  _65
REMARK   26  A    between atoms: _64  and  _67
REMARK   27  A    between atoms: _67  and  _68
REMARK   28  A    between atoms: _68  and  _69
REMARK   29  A    between atoms: _73  and  _74
REMARK   30  A    between atoms: _73  and  _76
REMARK   31  A    between atoms: _76  and  _77
REMARK   32  A    between atoms: _77  and  _78
REMARK   33  A    between atoms: _78  and  _79
REMARK   34  A    between atoms: _88  and  _90
REMARK   35  A    between atoms: _90  and  _91
REMARK   36  A    between atoms: _94  and  _96
REMARK   37  A    between atoms: _96  and  _97
REMARK   38  A    between atoms: _96  and  _99
REMARK   39  A    between atoms: _99  and  _100
REMARK   40  A    between atoms: _102  and  _104
REMARK   41  A    between atoms: _104  and  _105
REMARK   42  A    between atoms: _104  and  _107
REMARK   43  A    between atoms: _107  and  _108
REMARK   44  A    between atoms: _113  and  _114
REMARK   45  A    between atoms: _113  and  _116
REMARK   46  A    between atoms: _116  and  _117
REMARK   47  A    between atoms: _127  and  _129
REMARK   48  A    between atoms: _129  and  _130
REMARK   49  A    between atoms: _129  and  _132
REMARK   50  A    between atoms: _132  and  _133
REMARK   51  A    between atoms: _136  and  _138
REMARK   52  A    between atoms: _138  and  _139
REMARK   53  A    between atoms: _141  and  _143
REMARK   54  A    between atoms: _143  and  _144
REMARK   55  A    between atoms: _147  and  _149
REMARK   56  A    between atoms: _149  and  _150
REMARK   57  A    between atoms: _149  and  _152
REMARK   58  A    between atoms: _152  and  _153
REMARK   59  A    between atoms: _153  and  _154
REMARK   60  A    between atoms: _154  and  _155
REMARK   61  A    between atoms: _165  and  _166
REMARK   62  A    between atoms: _171  and  _173
REMARK   63  A    between atoms: _173  and  _174
REMARK   64  A    between atoms: _173  and  _176
REMARK   65  A    between atoms: _179  and  _181
REMARK   66  A    between atoms: _181  and  _182
REMARK   67  A    between atoms: _181  and  _184
REMARK   68  A    between atoms: _184  and  _185
REMARK   69  A    between atoms: _188  and  _190
REMARK   70  A    between atoms: _190  and  _191
REMARK   71  A    between atoms: _190  and  _193
REMARK   72  A    between atoms: _193  and  _194
REMARK   73  A    between atoms: _197  and  _199
REMARK   74  A    between atoms: _199  and  _200
REMARK   75  A    between atoms: _199  and  _202
REMARK   76  A    between atoms: _202  and  _203
REMARK   77  A    between atoms: _208  and  _210
REMARK   78  A    between atoms: _210  and  _211
REMARK   79  A    between atoms: _210  and  _213
REMARK   80  A    between atoms: _213  and  _214
REMARK   81  A    between atoms: _217  and  _219
REMARK   82  A    between atoms: _219  and  _220
REMARK   83  A    between atoms: _219  and  _222
REMARK   84  A    between atoms: _222  and  _223
REMARK   85  A    between atoms: _229  and  _231
REMARK   86  A    between atoms: _231  and  _232
REMARK   87  A    between atoms: _234  and  _236
REMARK   88  A    between atoms: _236  and  _237
REMARK   89  A    between atoms: _236  and  _239
REMARK   90  A    between atoms: _239  and  _240
REMARK   91  A    between atoms: _240  and  _241
REMARK   92  A    between atoms: _243  and  _245
REMARK   93  A    between atoms: _245  and  _246
REMARK   94  A    between atoms: _245  and  _248
REMARK   95  A    between atoms: _248  and  _249
REMARK   96  A    between atoms: _252  and  _254
REMARK   97  A    between atoms: _254  and  _255
REMARK   98  A    between atoms: _254  and  _257
REMARK   99  A    between atoms: _257  and  _258
REMARK  100  A    between atoms: _258  and  _259
REMARK  101  A    between atoms: _259  and  _260
REMARK  102  A    between atoms: _260  and  _261
REMARK  103  A    between atoms: _265  and  _267
REMARK  104  A    between atoms: _267  and  _268
REMARK  105  A    between atoms: _267  and  _270
REMARK  106  A    between atoms: _275  and  _276
REMARK  107  A    between atoms: _275  and  _278
REMARK  108  A    between atoms: _278  and  _279
REMARK  109  A    between atoms: _281  and  _283
REMARK  110  A    between atoms: _283  and  _284
REMARK  111  A    between atoms: _283  and  _286
REMARK  112  A    between atoms: _289  and  _291
REMARK  113  A    between atoms: _291  and  _292
REMARK  114  A    between atoms: _294  and  _296
REMARK  115  A    between atoms: _296  and  _297
REMARK  116  A    between atoms: _300  and  _302
REMARK  117  A    between atoms: _302  and  _303
REMARK  118  A    between atoms: _302  and  _305
REMARK  119  A    between atoms: _305  and  _306
REMARK  120  A    between atoms: _309  and  _311
REMARK  121  A    between atoms: _311  and  _312
REMARK  122  A    between atoms: _311  and  _314
REMARK  123  A    between atoms: _317  and  _319
REMARK  124  A    between atoms: _319  and  _320
REMARK  125  A    between atoms: _319  and  _322
REMARK  126  A    between atoms: _322  and  _323
REMARK  127  A    between atoms: _326  and  _328
REMARK  128  A    between atoms: _328  and  _329
REMARK  129  A    between atoms: _332  and  _334
REMARK  130  A    between atoms: _334  and  _335
REMARK  131  A    between atoms: _334  and  _337
REMARK  132  A    between atoms: _337  and  _338
REMARK  133  A    between atoms: _338  and  _339
REMARK  134  A    between atoms: _342  and  _344
REMARK  135  A    between atoms: _344  and  _345
REMARK  136  A    between atoms: _344  and  _347
REMARK  137  A    between atoms: _347  and  _348
REMARK  138  A    between atoms: _348  and  _349
REMARK  139  A    between atoms: _352  and  _354
REMARK  140  A    between atoms: _354  and  _355
REMARK  141  A    between atoms: _354  and  _357
REMARK  142  A    between atoms: _357  and  _358
REMARK  143  A    between atoms: _361  and  _363
REMARK  144  A    between atoms: _363  and  _364
REMARK  145  A    between atoms: _363  and  _366
REMARK  146  A    between atoms: _366  and  _367
REMARK  147  A    between atoms: _367  and  _368
REMARK  148  A    between atoms: _368  and  _369
REMARK  149  A    between atoms: _378  and  _380
REMARK  150  A    between atoms: _380  and  _381
REMARK  151  A    between atoms: _380  and  _383
REMARK  152  A    between atoms: _383  and  _384
REMARK  153  A    between atoms: _387  and  _389
REMARK  154  A    between atoms: _389  and  _390
REMARK  155  A    between atoms: _389  and  _392
REMARK  156  A    between atoms: _392  and  _393
REMARK  157  A    between atoms: _396  and  _398
REMARK  158  A    between atoms: _398  and  _399
REMARK  159  A    between atoms: _403  and  _404
REMARK  160  A    between atoms: _409  and  _411
REMARK  161  A    between atoms: _411  and  _412
REMARK  162  A    between atoms: _411  and  _414
REMARK  163  A    between atoms: _414  and  _415
REMARK  164  A    between atoms: _420  and  _422
REMARK  165  A    between atoms: _422  and  _423
REMARK  166  A    between atoms: _422  and  _425
REMARK  167  A    between atoms: _425  and  _426
REMARK  168  A    between atoms: _433  and  _434
REMARK  169  A    between atoms: _439  and  _441
REMARK  170  A    between atoms: _441  and  _442
REMARK  171  A    between atoms: _441  and  _444
REMARK  172  A    between atoms: _444  and  _445
REMARK  173  A    between atoms: _448  and  _450
REMARK  174  A    between atoms: _450  and  _451
REMARK  175  A    between atoms: _450  and  _453
REMARK  176  A    between atoms: _453  and  _454
REMARK  177  A    between atoms: _457  and  _459
REMARK  178  A    between atoms: _459  and  _460
REMARK  179  A    between atoms: _459  and  _462
REMARK  180  A    between atoms: _462  and  _463
REMARK  181  A    between atoms: _463  and  _464
REMARK  182  A    between atoms: _468  and  _469
REMARK  183  A    between atoms: _468  and  _471
REMARK  184  A    between atoms: _471  and  _472
REMARK  185  A    between atoms: _472  and  _473
REMARK  186  A    between atoms: _478  and  _480
REMARK  187  A    between atoms: _480  and  _481
REMARK  188  A    between atoms: _480  and  _483
REMARK  189  A    between atoms: _483  and  _484
REMARK  190  A    between atoms: _484  and  _485
REMARK  191  A    between atoms: _488  and  _490
REMARK  192  A    between atoms: _490  and  _491
REMARK  193  A    between atoms: _490  and  _493
REMARK  194  A    between atoms: _493  and  _494
REMARK  195  A    between atoms: _497  and  _499
REMARK  196  A    between atoms: _499  and  _500
REMARK  197  A    between atoms: _499  and  _502
REMARK  198  A    between atoms: _502  and  _503
REMARK  199  A    between atoms: _506  and  _508
REMARK  200  A    between atoms: _508  and  _509
REMARK  201  A    between atoms: _508  and  _511
REMARK  202  A    between atoms: _511  and  _512
REMARK  203  A    between atoms: _520  and  _521
REMARK  204  A    between atoms: _520  and  _523
REMARK  205  A    between atoms: _523  and  _524
REMARK  206  A    between atoms: _524  and  _525
REMARK  207  A    between atoms: _528  and  _530
REMARK  208  A    between atoms: _530  and  _531
REMARK  209  A    between atoms: _530  and  _533
REMARK  210  A    between atoms: _533  and  _534
REMARK  211  A    between atoms: _539  and  _541
REMARK  212  A    between atoms: _541  and  _542
REMARK  213  A    between atoms: _541  and  _544
REMARK  214  A    between atoms: _544  and  _545
REMARK  215  A    between atoms: _545  and  _546
REMARK  216  A    between atoms: _546  and  _547
REMARK  217  A    between atoms: _556  and  _558
REMARK  218  A    between atoms: _558  and  _559
REMARK  219  A    between atoms: _558  and  _561
REMARK  220  A    between atoms: _561  and  _562
REMARK  221  A    between atoms: _565  and  _567
REMARK  222  A    between atoms: _567  and  _568
REMARK  223  A    between atoms: _567  and  _570
REMARK  224  A    between atoms: _570  and  _571
REMARK  225  A    between atoms: _574  and  _576
REMARK  226  A    between atoms: _576  and  _577
REMARK  227  A    between atoms: _576  and  _579
REMARK  228  A    between atoms: _579  and  _580
REMARK  229  A    between atoms: _580  and  _581
REMARK  230  A    between atoms: _581  and  _582
REMARK  231  A    between atoms: _591  and  _593
REMARK  232  A    between atoms: _593  and  _594
REMARK  233  A    between atoms: _593  and  _596
REMARK  234  A    between atoms: _596  and  _597
REMARK  235  A    between atoms: _597  and  _598
REMARK  236  A    between atoms: _598  and  _599
REMARK  237  A    between atoms: _608  and  _610
REMARK  238  A    between atoms: _610  and  _611
REMARK  239  A    between atoms: _610  and  _613
REMARK  240  A    between atoms: _613  and  _614
REMARK  241  A    between atoms: _614  and  _615
REMARK  242  A    between atoms: _615  and  _616
REMARK  243  A    between atoms: _625  and  _627
REMARK  244  A    between atoms: _627  and  _628
REMARK  245  A    between atoms: _627  and  _630
REMARK  246  A    between atoms: _630  and  _631
REMARK  247  A    between atoms: _634  and  _636
REMARK  248  A    between atoms: _636  and  _637
REMARK  249  A    between atoms: _636  and  _639
REMARK  250  A    between atoms: _639  and  _640
REMARK  251  A    between atoms: _640  and  _641
REMARK                            x       y       z     vdW  Elec       q    Type
REMARK                         _______ _______ _______ _____ _____    ______ ____
ROOT
ATOM      1  O   HOH     1     -43.927   1.406  10.626  0.00  0.00    +0.000 OA
ENDROOT
TORSDOF 0
REMARK  Name = ../refined-set-2016/3v4t/3v4t_pocket.pdb
REMARK  251 active torsions:
REMARK  status: ('A' for Active; 'I' for Inactive)
REMARK    1  A    between atoms: _1  and  _3
REMARK    2  A    between atoms: _3  and  _4
REMARK    3  A    between atoms: _3  and  _6
REMARK    4  A    between atoms: _6  and  _7
REMARK    5  A    between atoms: _7  and  _8
REMARK    6  A    between atoms: _8  and  _9
REMARK    7  A    between atoms: _9  and  _10
REMARK    8  A    between atoms: _16  and  _17
REMARK    9  A    between atoms: _16  and  _19
REMARK   10  A    between atoms: _19  and  _20
REMARK   11  A    between atoms: _25  and  _27
REMARK   12  A    between atoms: _27  and  _28
REMARK   13  A    between atoms: _31  and  _33
REMARK   14  A    between atoms: _33  and  _34
REMARK   15  A    between atoms: _37  and  _39
REMARK   16  A    between atoms: _39  and  _40
REMARK   17  A    between atoms: _39  and  _42
REMARK   18  A    between atoms: _42  and  _43
REMARK   19  A    between atoms: _47  and  _48
REMARK   20  A    between atoms: _53  and  _55
REMARK   21  A    between atoms: _55  and  _56
REMARK   22  A    between atoms: _55  and  _58
REMARK   23  A    between atoms: _58  and  _59
REMARK   24  A    between atoms: _62  and  _64
REMARK   25  A    between atoms: _64  and  _65
REMARK   26  A    between atoms: _64  and  _67
REMARK   27  A    between atoms: _67  and  _68
REMARK   28  A    between atoms: _68  and  _69
REMARK   29  A    between atoms: _73  and  _74
REMARK   30  A    between atoms: _73  and  _76
REMARK   31  A    between atoms: _76  and  _77
REMARK   32  A    between atoms: _77  and  _78
REMARK   33  A    between atoms: _78  and  _79
REMARK   34  A    between atoms: _88  and  _90
REMARK   35  A    between atoms: _90  and  _91
REMARK   36  A    between atoms: _94  and  _96
REMARK   37  A    between atoms: _96  and  _97
REMARK   38  A    between atoms: _96  and  _99
REMARK   39  A    between atoms: _99  and  _100
REMARK   40  A    between atoms: _102  and  _104
REMARK   41  A    between atoms: _104  and  _105
REMARK   42  A    between atoms: _104  and  _107
REMARK   43  A    between atoms: _107  and  _108
REMARK   44  A    between atoms: _113  and  _114
REMARK   45  A    between atoms: _113  and  _116
REMARK   46  A    between atoms: _116  and  _117
REMARK   47  A    between atoms: _127  and  _129
REMARK   48  A    between atoms: _129  and  _130
REMARK   49  A    between atoms: _129  and  _132
REMARK   50  A    between atoms: _132  and  _133
REMARK   51  A    between atoms: _136  and  _138
REMARK   52  A    between atoms: _138  and  _139
REMARK   53  A    between atoms: _141  and  _143
REMARK   54  A    between atoms: _143  and  _144
REMARK   55  A    between atoms: _147  and  _149
REMARK   56  A    between atoms: _149  and  _150
REMARK   57  A    between atoms: _149  and  _152
REMARK   58  A    between atoms: _152  and  _153
REMARK   59  A    between atoms: _153  and  _154
REMARK   60  A    between atoms: _154  and  _155
REMARK   61  A    between atoms: _165  and  _166
REMARK   62  A    between atoms: _171  and  _173
REMARK   63  A    between atoms: _173  and  _174
REMARK   64  A    between atoms: _173  and  _176
REMARK   65  A    between atoms: _179  and  _181
REMARK   66  A    between atoms: _181  and  _182
REMARK   67  A    between atoms: _181  and  _184
REMARK   68  A    between atoms: _184  and  _185
REMARK   69  A    between atoms: _188  and  _190
REMARK   70  A    between atoms: _190  and  _191
REMARK   71  A    between atoms: _190  and  _193
REMARK   72  A    between atoms: _193  and  _194
REMARK   73  A    between atoms: _197  and  _199
REMARK   74  A    between atoms: _199  and  _200
REMARK   75  A    between atoms: _199  and  _202
REMARK   76  A    between atoms: _202  and  _203
REMARK   77  A    between atoms: _208  and  _210
REMARK   78  A    between atoms: _210  and  _211
REMARK   79  A    between atoms: _210  and  _213
REMARK   80  A    between atoms: _213  and  _214
REMARK   81  A    between atoms: _217  and  _219
REMARK   82  A    between atoms: _219  and  _220
REMARK   83  A    between atoms: _219  and  _222
REMARK   84  A    between atoms: _222  and  _223
REMARK   85  A    between atoms: _229  and  _231
REMARK   86  A    between atoms: _231  and  _232
REMARK   87  A    between atoms: _234  and  _236
REMARK   88  A    between atoms: _236  and  _237
REMARK   89  A    between atoms: _236  and  _239
REMARK   90  A    between atoms: _239  and  _240
REMARK   91  A    between atoms: _240  and  _241
REMARK   92  A    between atoms: _243  and  _245
REMARK   93  A    between atoms: _245  and  _246
REMARK   94  A    between atoms: _245  and  _248
REMARK   95  A    between atoms: _248  and  _249
REMARK   96  A    between atoms: _252  and  _254
REMARK   97  A    between atoms: _254  and  _255
REMARK   98  A    between atoms: _254  and  _257
REMARK   99  A    between atoms: _257  and  _258
REMARK  100  A    between atoms: _258  and  _259
REMARK  101  A    between atoms: _259  and  _260
REMARK  102  A    between atoms: _260  and  _261
REMARK  103  A    between atoms: _265  and  _267
REMARK  104  A    between atoms: _267  and  _268
REMARK  105  A    between atoms: _267  and  _270
REMARK  106  A    between atoms: _275  and  _276
REMARK  107  A    between atoms: _275  and  _278
REMARK  108  A    between atoms: _278  and  _279
REMARK  109  A    between atoms: _281  and  _283
REMARK  110  A    between atoms: _283  and  _284
REMARK  111  A    between atoms: _283  and  _286
REMARK  112  A    between atoms: _289  and  _291
REMARK  113  A    between atoms: _291  and  _292
REMARK  114  A    between atoms: _294  and  _296
REMARK  115  A    between atoms: _296  and  _297
REMARK  116  A    between atoms: _300  and  _302
REMARK  117  A    between atoms: _302  and  _303
REMARK  118  A    between atoms: _302  and  _305
REMARK  119  A    between atoms: _305  and  _306
REMARK  120  A    between atoms: _309  and  _311
REMARK  121  A    between atoms: _311  and  _312
REMARK  122  A    between atoms: _311  and  _314
REMARK  123  A    between atoms: _317  and  _319
REMARK  124  A    between atoms: _319  and  _320
REMARK  125  A    between atoms: _319  and  _322
REMARK  126  A    between atoms: _322  and  _323
REMARK  127  A    between atoms: _326  and  _328
REMARK  128  A    between atoms: _328  and  _329
REMARK  129  A    between atoms: _332  and  _334
REMARK  130  A    between atoms: _334  and  _335
REMARK  131  A    between atoms: _334  and  _337
REMARK  132  A    between atoms: _337  and  _338
REMARK  133  A    between atoms: _338  and  _339
REMARK  134  A    between atoms: _342  and  _344
REMARK  135  A    between atoms: _344  and  _345
REMARK  136  A    between atoms: _344  and  _347
REMARK  137  A    between atoms: _347  and  _348
REMARK  138  A    between atoms: _348  and  _349
REMARK  139  A    between atoms: _352  and  _354
REMARK  140  A    between atoms: _354  and  _355
REMARK  141  A    between atoms: _354  and  _357
REMARK  142  A    between atoms: _357  and  _358
REMARK  143  A    between atoms: _361  and  _363
REMARK  144  A    between atoms: _363  and  _364
REMARK  145  A    between atoms: _363  and  _366
REMARK  146  A    between atoms: _366  and  _367
REMARK  147  A    between atoms: _367  and  _368
REMARK  148  A    between atoms: _368  and  _369
REMARK  149  A    between atoms: _378  and  _380
REMARK  150  A    between atoms: _380  and  _381
REMARK  151  A    between atoms: _380  and  _383
REMARK  152  A    between atoms: _383  and  _384
REMARK  153  A    between atoms: _387  and  _389
REMARK  154  A    between atoms: _389  and  _390
REMARK  155  A    between atoms: _389  and  _392
REMARK  156  A    between atoms: _392  and  _393
REMARK  157  A    between atoms: _396  and  _398
REMARK  158  A    between atoms: _398  and  _399
REMARK  159  A    between atoms: _403  and  _404
REMARK  160  A    between atoms: _409  and  _411
REMARK  161  A    between atoms: _411  and  _412
REMARK  162  A    between atoms: _411  and  _414
REMARK  163  A    between atoms: _414  and  _415
REMARK  164  A    between atoms: _420  and  _422
REMARK  165  A    between atoms: _422  and  _423
REMARK  166  A    between atoms: _422  and  _425
REMARK  167  A    between atoms: _425  and  _426
REMARK  168  A    between atoms: _433  and  _434
REMARK  169  A    between atoms: _439  and  _441
REMARK  170  A    between atoms: _441  and  _442
REMARK  171  A    between atoms: _441  and  _444
REMARK  172  A    between atoms: _444  and  _445
REMARK  173  A    between atoms: _448  and  _450
REMARK  174  A    between atoms: _450  and  _451
REMARK  175  A    between atoms: _450  and  _453
REMARK  176  A    between atoms: _453  and  _454
REMARK  177  A    between atoms: _457  and  _459
REMARK  178  A    between atoms: _459  and  _460
REMARK  179  A    between atoms: _459  and  _462
REMARK  180  A    between atoms: _462  and  _463
REMARK  181  A    between atoms: _463  and  _464
REMARK  182  A    between atoms: _468  and  _469
REMARK  183  A    between atoms: _468  and  _471
REMARK  184  A    between atoms: _471  and  _472
REMARK  185  A    between atoms: _472  and  _473
REMARK  186  A    between atoms: _478  and  _480
REMARK  187  A    between atoms: _480  and  _481
REMARK  188  A    between atoms: _480  and  _483
REMARK  189  A    between atoms: _483  and  _484
REMARK  190  A    between atoms: _484  and  _485
REMARK  191  A    between atoms: _488  and  _490
REMARK  192  A    between atoms: _490  and  _491
REMARK  193  A    between atoms: _490  and  _493
REMARK  194  A    between atoms: _493  and  _494
REMARK  195  A    between atoms: _497  and  _499
REMARK  196  A    between atoms: _499  and  _500
REMARK  197  A    between atoms: _499  and  _502
REMARK  198  A    between atoms: _502  and  _503
REMARK  199  A    between atoms: _506  and  _508
REMARK  200  A    between atoms: _508  and  _509
REMARK  201  A    between atoms: _508  and  _511
REMARK  202  A    between atoms: _511  and  _512
REMARK  203  A    between atoms: _520  and  _521
REMARK  204  A    between atoms: _520  and  _523
REMARK  205  A    between atoms: _523  and  _524
REMARK  206  A    between atoms: _524  and  _525
REMARK  207  A    between atoms: _528  and  _530
REMARK  208  A    between atoms: _530  and  _531
REMARK  209  A    between atoms: _530  and  _533
REMARK  210  A    between atoms: _533  and  _534
REMARK  211  A    between atoms: _539  and  _541
REMARK  212  A    between atoms: _541  and  _542
REMARK  213  A    between atoms: _541  and  _544
REMARK  214  A    between atoms: _544  and  _545
REMARK  215  A    between atoms: _545  and  _546
REMARK  216  A    between atoms: _546  and  _547
REMARK  217  A    between atoms: _556  and  _558
REMARK  218  A    between atoms: _558  and  _559
REMARK  219  A    between atoms: _558  and  _561
REMARK  220  A    between atoms: _561  and  _562
REMARK  221  A    between atoms: _565  and  _567
REMARK  222  A    between atoms: _567  and  _568
REMARK  223  A    between atoms: _567  and  _570
REMARK  224  A    between atoms: _570  and  _571
REMARK  225  A    between atoms: _574  and  _576
REMARK  226  A    between atoms: _576  and  _577
REMARK  227  A    between atoms: _576  and  _579
REMARK  228  A    between atoms: _579  and  _580
REMARK  229  A    between atoms: _580  and  _581
REMARK  230  A    between atoms: _581  and  _582
REMARK  231  A    between atoms: _591  and  _593
REMARK  232  A    between atoms: _593  and  _594
REMARK  233  A    between atoms: _593  and  _596
REMARK  234  A    between atoms: _596  and  _597
REMARK  235  A    between atoms: _597  and  _598
REMARK  236  A    between atoms: _598  and  _599
REMARK  237  A    between atoms: _608  and  _610
REMARK  238  A    between atoms: _610  and  _611
REMARK  239  A    between atoms: _610  and  _613
REMARK  240  A    between atoms: _613  and  _614
REMARK  241  A    between atoms: _614  and  _615
REMARK  242  A    between atoms: _615  and  _616
REMARK  243  A    between atoms: _625  and  _627
REMARK  244  A    between atoms: _627  and  _628
REMARK  245  A    between atoms: _627  and  _630
REMARK  246  A    between atoms: _630  and  _631
REMARK  247  A    between atoms: _634  and  _636
REMARK  248  A    between atoms: _636  and  _637
REMARK  249  A    between atoms: _636  and  _639
REMARK  250  A    between atoms: _639  and  _640
REMARK  251  A    between atoms: _640  and  _641
REMARK                            x       y       z     vdW  Elec       q    Type
REMARK                         _______ _______ _______ _____ _____    ______ ____
ROOT
ATOM      1  O   HOH     1     -35.413   4.032  16.941  0.00  0.00    +0.000 OA
ENDROOT
TORSDOF 0
REMARK  Name = ../refined-set-2016/3v4t/3v4t_pocket.pdb
REMARK  251 active torsions:
REMARK  status: ('A' for Active; 'I' for Inactive)
REMARK    1  A    between atoms: _1  and  _3
REMARK    2  A    between atoms: _3  and  _4
REMARK    3  A    between atoms: _3  and  _6
REMARK    4  A    between atoms: _6  and  _7
REMARK    5  A    between atoms: _7  and  _8
REMARK    6  A    between atoms: _8  and  _9
REMARK    7  A    between atoms: _9  and  _10
REMARK    8  A    between atoms: _16  and  _17
REMARK    9  A    between atoms: _16  and  _19
REMARK   10  A    between atoms: _19  and  _20
REMARK   11  A    between atoms: _25  and  _27
REMARK   12  A    between atoms: _27  and  _28
REMARK   13  A    between atoms: _31  and  _33
REMARK   14  A    between atoms: _33  and  _34
REMARK   15  A    between atoms: _37  and  _39
REMARK   16  A    between atoms: _39  and  _40
REMARK   17  A    between atoms: _39  and  _42
REMARK   18  A    between atoms: _42  and  _43
REMARK   19  A    between atoms: _47  and  _48
REMARK   20  A    between atoms: _53  and  _55
REMARK   21  A    between atoms: _55  and  _56
REMARK   22  A    between atoms: _55  and  _58
REMARK   23  A    between atoms: _58  and  _59
REMARK   24  A    between atoms: _62  and  _64
REMARK   25  A    between atoms: _64  and  _65
REMARK   26  A    between atoms: _64  and  _67
REMARK   27  A    between atoms: _67  and  _68
REMARK   28  A    between atoms: _68  and  _69
REMARK   29  A    between atoms: _73  and  _74
REMARK   30  A    between atoms: _73  and  _76
REMARK   31  A    between atoms: _76  and  _77
REMARK   32  A    between atoms: _77  and  _78
REMARK   33  A    between atoms: _78  and  _79
REMARK   34  A    between atoms: _88  and  _90
REMARK   35  A    between atoms: _90  and  _91
REMARK   36  A    between atoms: _94  and  _96
REMARK   37  A    between atoms: _96  and  _97
REMARK   38  A    between atoms: _96  and  _99
REMARK   39  A    between atoms: _99  and  _100
REMARK   40  A    between atoms: _102  and  _104
REMARK   41  A    between atoms: _104  and  _105
REMARK   42  A    between atoms: _104  and  _107
REMARK   43  A    between atoms: _107  and  _108
REMARK   44  A    between atoms: _113  and  _114
REMARK   45  A    between atoms: _113  and  _116
REMARK   46  A    between atoms: _116  and  _117
REMARK   47  A    between atoms: _127  and  _129
REMARK   48  A    between atoms: _129  and  _130
REMARK   49  A    between atoms: _129  and  _132
REMARK   50  A    between atoms: _132  and  _133
REMARK   51  A    between atoms: _136  and  _138
REMARK   52  A    between atoms: _138  and  _139
REMARK   53  A    between atoms: _141  and  _143
REMARK   54  A    between atoms: _143  and  _144
REMARK   55  A    between atoms: _147  and  _149
REMARK   56  A    between atoms: _149  and  _150
REMARK   57  A    between atoms: _149  and  _152
REMARK   58  A    between atoms: _152  and  _153
REMARK   59  A    between atoms: _153  and  _154
REMARK   60  A    between atoms: _154  and  _155
REMARK   61  A    between atoms: _165  and  _166
REMARK   62  A    between atoms: _171  and  _173
REMARK   63  A    between atoms: _173  and  _174
REMARK   64  A    between atoms: _173  and  _176
REMARK   65  A    between atoms: _179  and  _181
REMARK   66  A    between atoms: _181  and  _182
REMARK   67  A    between atoms: _181  and  _184
REMARK   68  A    between atoms: _184  and  _185
REMARK   69  A    between atoms: _188  and  _190
REMARK   70  A    between atoms: _190  and  _191
REMARK   71  A    between atoms: _190  and  _193
REMARK   72  A    between atoms: _193  and  _194
REMARK   73  A    between atoms: _197  and  _199
REMARK   74  A    between atoms: _199  and  _200
REMARK   75  A    between atoms: _199  and  _202
REMARK   76  A    between atoms: _202  and  _203
REMARK   77  A    between atoms: _208  and  _210
REMARK   78  A    between atoms: _210  and  _211
REMARK   79  A    between atoms: _210  and  _213
REMARK   80  A    between atoms: _213  and  _214
REMARK   81  A    between atoms: _217  and  _219
REMARK   82  A    between atoms: _219  and  _220
REMARK   83  A    between atoms: _219  and  _222
REMARK   84  A    between atoms: _222  and  _223
REMARK   85  A    between atoms: _229  and  _231
REMARK   86  A    between atoms: _231  and  _232
REMARK   87  A    between atoms: _234  and  _236
REMARK   88  A    between atoms: _236  and  _237
REMARK   89  A    between atoms: _236  and  _239
REMARK   90  A    between atoms: _239  and  _240
REMARK   91  A    between atoms: _240  and  _241
REMARK   92  A    between atoms: _243  and  _245
REMARK   93  A    between atoms: _245  and  _246
REMARK   94  A    between atoms: _245  and  _248
REMARK   95  A    between atoms: _248  and  _249
REMARK   96  A    between atoms: _252  and  _254
REMARK   97  A    between atoms: _254  and  _255
REMARK   98  A    between atoms: _254  and  _257
REMARK   99  A    between atoms: _257  and  _258
REMARK  100  A    between atoms: _258  and  _259
REMARK  101  A    between atoms: _259  and  _260
REMARK  102  A    between atoms: _260  and  _261
REMARK  103  A    between atoms: _265  and  _267
REMARK  104  A    between atoms: _267  and  _268
REMARK  105  A    between atoms: _267  and  _270
REMARK  106  A    between atoms: _275  and  _276
REMARK  107  A    between atoms: _275  and  _278
REMARK  108  A    between atoms: _278  and  _279
REMARK  109  A    between atoms: _281  and  _283
REMARK  110  A    between atoms: _283  and  _284
REMARK  111  A    between atoms: _283  and  _286
REMARK  112  A    between atoms: _289  and  _291
REMARK  113  A    between atoms: _291  and  _292
REMARK  114  A    between atoms: _294  and  _296
REMARK  115  A    between atoms: _296  and  _297
REMARK  116  A    between atoms: _300  and  _302
REMARK  117  A    between atoms: _302  and  _303
REMARK  118  A    between atoms: _302  and  _305
REMARK  119  A    between atoms: _305  and  _306
REMARK  120  A    between atoms: _309  and  _311
REMARK  121  A    between atoms: _311  and  _312
REMARK  122  A    between atoms: _311  and  _314
REMARK  123  A    between atoms: _317  and  _319
REMARK  124  A    between atoms: _319  and  _320
REMARK  125  A    between atoms: _319  and  _322
REMARK  126  A    between atoms: _322  and  _323
REMARK  127  A    between atoms: _326  and  _328
REMARK  128  A    between atoms: _328  and  _329
REMARK  129  A    between atoms: _332  and  _334
REMARK  130  A    between atoms: _334  and  _335
REMARK  131  A    between atoms: _334  and  _337
REMARK  132  A    between atoms: _337  and  _338
REMARK  133  A    between atoms: _338  and  _339
REMARK  134  A    between atoms: _342  and  _344
REMARK  135  A    between atoms: _344  and  _345
REMARK  136  A    between atoms: _344  and  _347
REMARK  137  A    between atoms: _347  and  _348
REMARK  138  A    between atoms: _348  and  _349
REMARK  139  A    between atoms: _352  and  _354
REMARK  140  A    between atoms: _354  and  _355
REMARK  141  A    between atoms: _354  and  _357
REMARK  142  A    between atoms: _357  and  _358
REMARK  143  A    between atoms: _361  and  _363
REMARK  144  A    between atoms: _363  and  _364
REMARK  145  A    between atoms: _363  and  _366
REMARK  146  A    between atoms: _366  and  _367
REMARK  147  A    between atoms: _367  and  _368
REMARK  148  A    between atoms: _368  and  _369
REMARK  149  A    between atoms: _378  and  _380
REMARK  150  A    between atoms: _380  and  _381
REMARK  151  A    between atoms: _380  and  _383
REMARK  152  A    between atoms: _383  and  _384
REMARK  153  A    between atoms: _387  and  _389
REMARK  154  A    between atoms: _389  and  _390
REMARK  155  A    between atoms: _389  and  _392
REMARK  156  A    between atoms: _392  and  _393
REMARK  157  A    between atoms: _396  and  _398
REMARK  158  A    between atoms: _398  and  _399
REMARK  159  A    between atoms: _403  and  _404
REMARK  160  A    between atoms: _409  and  _411
REMARK  161  A    between atoms: _411  and  _412
REMARK  162  A    between atoms: _411  and  _414
REMARK  163  A    between atoms: _414  and  _415
REMARK  164  A    between atoms: _420  and  _422
REMARK  165  A    between atoms: _422  and  _423
REMARK  166  A    between atoms: _422  and  _425
REMARK  167  A    between atoms: _425  and  _426
REMARK  168  A    between atoms: _433  and  _434
REMARK  169  A    between atoms: _439  and  _441
REMARK  170  A    between atoms: _441  and  _442
REMARK  171  A    between atoms: _441  and  _444
REMARK  172  A    between atoms: _444  and  _445
REMARK  173  A    between atoms: _448  and  _450
REMARK  174  A    between atoms: _450  and  _451
REMARK  175  A    between atoms: _450  and  _453
REMARK  176  A    between atoms: _453  and  _454
REMARK  177  A    between atoms: _457  and  _459
REMARK  178  A    between atoms: _459  and  _460
REMARK  179  A    between atoms: _459  and  _462
REMARK  180  A    between atoms: _462  and  _463
REMARK  181  A    between atoms: _463  and  _464
REMARK  182  A    between atoms: _468  and  _469
REMARK  183  A    between atoms: _468  and  _471
REMARK  184  A    between atoms: _471  and  _472
REMARK  185  A    between atoms: _472  and  _473
REMARK  186  A    between atoms: _478  and  _480
REMARK  187  A    between atoms: _480  and  _481
REMARK  188  A    between atoms: _480  and  _483
REMARK  189  A    between atoms: _483  and  _484
REMARK  190  A    between atoms: _484  and  _485
REMARK  191  A    between atoms: _488  and  _490
REMARK  192  A    between atoms: _490  and  _491
REMARK  193  A    between atoms: _490  and  _493
REMARK  194  A    between atoms: _493  and  _494
REMARK  195  A    between atoms: _497  and  _499
REMARK  196  A    between atoms: _499  and  _500
REMARK  197  A    between atoms: _499  and  _502
REMARK  198  A    between atoms: _502  and  _503
REMARK  199  A    between atoms: _506  and  _508
REMARK  200  A    between atoms: _508  and  _509
REMARK  201  A    between atoms: _508  and  _511
REMARK  202  A    between atoms: _511  and  _512
REMARK  203  A    between atoms: _520  and  _521
REMARK  204  A    between atoms: _520  and  _523
REMARK  205  A    between atoms: _523  and  _524
REMARK  206  A    between atoms: _524  and  _525
REMARK  207  A    between atoms: _528  and  _530
REMARK  208  A    between atoms: _530  and  _531
REMARK  209  A    between atoms: _530  and  _533
REMARK  210  A    between atoms: _533  and  _534
REMARK  211  A    between atoms: _539  and  _541
REMARK  212  A    between atoms: _541  and  _542
REMARK  213  A    between atoms: _541  and  _544
REMARK  214  A    between atoms: _544  and  _545
REMARK  215  A    between atoms: _545  and  _546
REMARK  216  A    between atoms: _546  and  _547
REMARK  217  A    between atoms: _556  and  _558
REMARK  218  A    between atoms: _558  and  _559
REMARK  219  A    between atoms: _558  and  _561
REMARK  220  A    between atoms: _561  and  _562
REMARK  221  A    between atoms: _565  and  _567
REMARK  222  A    between atoms: _567  and  _568
REMARK  223  A    between atoms: _567  and  _570
REMARK  224  A    between atoms: _570  and  _571
REMARK  225  A    between atoms: _574  and  _576
REMARK  226  A    between atoms: _576  and  _577
REMARK  227  A    between atoms: _576  and  _579
REMARK  228  A    between atoms: _579  and  _580
REMARK  229  A    between atoms: _580  and  _581
REMARK  230  A    between atoms: _581  and  _582
REMARK  231  A    between atoms: _591  and  _593
REMARK  232  A    between atoms: _593  and  _594
REMARK  233  A    between atoms: _593  and  _596
REMARK  234  A    between atoms: _596  and  _597
REMARK  235  A    between atoms: _597  and  _598
REMARK  236  A    between atoms: _598  and  _599
REMARK  237  A    between atoms: _608  and  _610
REMARK  238  A    between atoms: _610  and  _611
REMARK  239  A    between atoms: _610  and  _613
REMARK  240  A    between atoms: _613  and  _614
REMARK  241  A    between atoms: _614  and  _615
REMARK  242  A    between atoms: _615  and  _616
REMARK  243  A    between atoms: _625  and  _627
REMARK  244  A    between atoms: _627  and  _628
REMARK  245  A    between atoms: _627  and  _630
REMARK  246  A    between atoms: _630  and  _631
REMARK  247  A    between atoms: _634  and  _636
REMARK  248  A    between atoms: _636  and  _637
REMARK  249  A    between atoms: _636  and  _639
REMARK  250  A    between atoms: _639  and  _640
REMARK  251  A    between atoms: _640  and  _641
REMARK                            x       y       z     vdW  Elec       q    Type
REMARK                         _______ _______ _______ _____ _____    ______ ____
ROOT
ATOM      1  O   HOH     1     -33.383  -4.227  11.656  0.00  0.00    +0.000 OA
ENDROOT
TORSDOF 0
REMARK  Name = ../refined-set-2016/3v4t/3v4t_pocket.pdb
REMARK  251 active torsions:
REMARK  status: ('A' for Active; 'I' for Inactive)
REMARK    1  A    between atoms: _1  and  _3
REMARK    2  A    between atoms: _3  and  _4
REMARK    3  A    between atoms: _3  and  _6
REMARK    4  A    between atoms: _6  and  _7
REMARK    5  A    between atoms: _7  and  _8
REMARK    6  A    between atoms: _8  and  _9
REMARK    7  A    between atoms: _9  and  _10
REMARK    8  A    between atoms: _16  and  _17
REMARK    9  A    between atoms: _16  and  _19
REMARK   10  A    between atoms: _19  and  _20
REMARK   11  A    between atoms: _25  and  _27
REMARK   12  A    between atoms: _27  and  _28
REMARK   13  A    between atoms: _31  and  _33
REMARK   14  A    between atoms: _33  and  _34
REMARK   15  A    between atoms: _37  and  _39
REMARK   16  A    between atoms: _39  and  _40
REMARK   17  A    between atoms: _39  and  _42
REMARK   18  A    between atoms: _42  and  _43
REMARK   19  A    between atoms: _47  and  _48
REMARK   20  A    between atoms: _53  and  _55
REMARK   21  A    between atoms: _55  and  _56
REMARK   22  A    between atoms: _55  and  _58
REMARK   23  A    between atoms: _58  and  _59
REMARK   24  A    between atoms: _62  and  _64
REMARK   25  A    between atoms: _64  and  _65
REMARK   26  A    between atoms: _64  and  _67
REMARK   27  A    between atoms: _67  and  _68
REMARK   28  A    between atoms: _68  and  _69
REMARK   29  A    between atoms: _73  and  _74
REMARK   30  A    between atoms: _73  and  _76
REMARK   31  A    between atoms: _76  and  _77
REMARK   32  A    between atoms: _77  and  _78
REMARK   33  A    between atoms: _78  and  _79
REMARK   34  A    between atoms: _88  and  _90
REMARK   35  A    between atoms: _90  and  _91
REMARK   36  A    between atoms: _94  and  _96
REMARK   37  A    between atoms: _96  and  _97
REMARK   38  A    between atoms: _96  and  _99
REMARK   39  A    between atoms: _99  and  _100
REMARK   40  A    between atoms: _102  and  _104
REMARK   41  A    between atoms: _104  and  _105
REMARK   42  A    between atoms: _104  and  _107
REMARK   43  A    between atoms: _107  and  _108
REMARK   44  A    between atoms: _113  and  _114
REMARK   45  A    between atoms: _113  and  _116
REMARK   46  A    between atoms: _116  and  _117
REMARK   47  A    between atoms: _127  and  _129
REMARK   48  A    between atoms: _129  and  _130
REMARK   49  A    between atoms: _129  and  _132
REMARK   50  A    between atoms: _132  and  _133
REMARK   51  A    between atoms: _136  and  _138
REMARK   52  A    between atoms: _138  and  _139
REMARK   53  A    between atoms: _141  and  _143
REMARK   54  A    between atoms: _143  and  _144
REMARK   55  A    between atoms: _147  and  _149
REMARK   56  A    between atoms: _149  and  _150
REMARK   57  A    between atoms: _149  and  _152
REMARK   58  A    between atoms: _152  and  _153
REMARK   59  A    between atoms: _153  and  _154
REMARK   60  A    between atoms: _154  and  _155
REMARK   61  A    between atoms: _165  and  _166
REMARK   62  A    between atoms: _171  and  _173
REMARK   63  A    between atoms: _173  and  _174
REMARK   64  A    between atoms: _173  and  _176
REMARK   65  A    between atoms: _179  and  _181
REMARK   66  A    between atoms: _181  and  _182
REMARK   67  A    between atoms: _181  and  _184
REMARK   68  A    between atoms: _184  and  _185
REMARK   69  A    between atoms: _188  and  _190
REMARK   70  A    between atoms: _190  and  _191
REMARK   71  A    between atoms: _190  and  _193
REMARK   72  A    between atoms: _193  and  _194
REMARK   73  A    between atoms: _197  and  _199
REMARK   74  A    between atoms: _199  and  _200
REMARK   75  A    between atoms: _199  and  _202
REMARK   76  A    between atoms: _202  and  _203
REMARK   77  A    between atoms: _208  and  _210
REMARK   78  A    between atoms: _210  and  _211
REMARK   79  A    between atoms: _210  and  _213
REMARK   80  A    between atoms: _213  and  _214
REMARK   81  A    between atoms: _217  and  _219
REMARK   82  A    between atoms: _219  and  _220
REMARK   83  A    between atoms: _219  and  _222
REMARK   84  A    between atoms: _222  and  _223
REMARK   85  A    between atoms: _229  and  _231
REMARK   86  A    between atoms: _231  and  _232
REMARK   87  A    between atoms: _234  and  _236
REMARK   88  A    between atoms: _236  and  _237
REMARK   89  A    between atoms: _236  and  _239
REMARK   90  A    between atoms: _239  and  _240
REMARK   91  A    between atoms: _240  and  _241
REMARK   92  A    between atoms: _243  and  _245
REMARK   93  A    between atoms: _245  and  _246
REMARK   94  A    between atoms: _245  and  _248
REMARK   95  A    between atoms: _248  and  _249
REMARK   96  A    between atoms: _252  and  _254
REMARK   97  A    between atoms: _254  and  _255
REMARK   98  A    between atoms: _254  and  _257
REMARK   99  A    between atoms: _257  and  _258
REMARK  100  A    between atoms: _258  and  _259
REMARK  101  A    between atoms: _259  and  _260
REMARK  102  A    between atoms: _260  and  _261
REMARK  103  A    between atoms: _265  and  _267
REMARK  104  A    between atoms: _267  and  _268
REMARK  105  A    between atoms: _267  and  _270
REMARK  106  A    between atoms: _275  and  _276
REMARK  107  A    between atoms: _275  and  _278
REMARK  108  A    between atoms: _278  and  _279
REMARK  109  A    between atoms: _281  and  _283
REMARK  110  A    between atoms: _283  and  _284
REMARK  111  A    between atoms: _283  and  _286
REMARK  112  A    between atoms: _289  and  _291
REMARK  113  A    between atoms: _291  and  _292
REMARK  114  A    between atoms: _294  and  _296
REMARK  115  A    between atoms: _296  and  _297
REMARK  116  A    between atoms: _300  and  _302
REMARK  117  A    between atoms: _302  and  _303
REMARK  118  A    between atoms: _302  and  _305
REMARK  119  A    between atoms: _305  and  _306
REMARK  120  A    between atoms: _309  and  _311
REMARK  121  A    between atoms: _311  and  _312
REMARK  122  A    between atoms: _311  and  _314
REMARK  123  A    between atoms: _317  and  _319
REMARK  124  A    between atoms: _319  and  _320
REMARK  125  A    between atoms: _319  and  _322
REMARK  126  A    between atoms: _322  and  _323
REMARK  127  A    between atoms: _326  and  _328
REMARK  128  A    between atoms: _328  and  _329
REMARK  129  A    between atoms: _332  and  _334
REMARK  130  A    between atoms: _334  and  _335
REMARK  131  A    between atoms: _334  and  _337
REMARK  132  A    between atoms: _337  and  _338
REMARK  133  A    between atoms: _338  and  _339
REMARK  134  A    between atoms: _342  and  _344
REMARK  135  A    between atoms: _344  and  _345
REMARK  136  A    between atoms: _344  and  _347
REMARK  137  A    between atoms: _347  and  _348
REMARK  138  A    between atoms: _348  and  _349
REMARK  139  A    between atoms: _352  and  _354
REMARK  140  A    between atoms: _354  and  _355
REMARK  141  A    between atoms: _354  and  _357
REMARK  142  A    between atoms: _357  and  _358
REMARK  143  A    between atoms: _361  and  _363
REMARK  144  A    between atoms: _363  and  _364
REMARK  145  A    between atoms: _363  and  _366
REMARK  146  A    between atoms: _366  and  _367
REMARK  147  A    between atoms: _367  and  _368
REMARK  148  A    between atoms: _368  and  _369
REMARK  149  A    between atoms: _378  and  _380
REMARK  150  A    between atoms: _380  and  _381
REMARK  151  A    between atoms: _380  and  _383
REMARK  152  A    between atoms: _383  and  _384
REMARK  153  A    between atoms: _387  and  _389
REMARK  154  A    between atoms: _389  and  _390
REMARK  155  A    between atoms: _389  and  _392
REMARK  156  A    between atoms: _392  and  _393
REMARK  157  A    between atoms: _396  and  _398
REMARK  158  A    between atoms: _398  and  _399
REMARK  159  A    between atoms: _403  and  _404
REMARK  160  A    between atoms: _409  and  _411
REMARK  161  A    between atoms: _411  and  _412
REMARK  162  A    between atoms: _411  and  _414
REMARK  163  A    between atoms: _414  and  _415
REMARK  164  A    between atoms: _420  and  _422
REMARK  165  A    between atoms: _422  and  _423
REMARK  166  A    between atoms: _422  and  _425
REMARK  167  A    between atoms: _425  and  _426
REMARK  168  A    between atoms: _433  and  _434
REMARK  169  A    between atoms: _439  and  _441
REMARK  170  A    between atoms: _441  and  _442
REMARK  171  A    between atoms: _441  and  _444
REMARK  172  A    between atoms: _444  and  _445
REMARK  173  A    between atoms: _448  and  _450
REMARK  174  A    between atoms: _450  and  _451
REMARK  175  A    between atoms: _450  and  _453
REMARK  176  A    between atoms: _453  and  _454
REMARK  177  A    between atoms: _457  and  _459
REMARK  178  A    between atoms: _459  and  _460
REMARK  179  A    between atoms: _459  and  _462
REMARK  180  A    between atoms: _462  and  _463
REMARK  181  A    between atoms: _463  and  _464
REMARK  182  A    between atoms: _468  and  _469
REMARK  183  A    between atoms: _468  and  _471
REMARK  184  A    between atoms: _471  and  _472
REMARK  185  A    between atoms: _472  and  _473
REMARK  186  A    between atoms: _478  and  _480
REMARK  187  A    between atoms: _480  and  _481
REMARK  188  A    between atoms: _480  and  _483
REMARK  189  A    between atoms: _483  and  _484
REMARK  190  A    between atoms: _484  and  _485
REMARK  191  A    between atoms: _488  and  _490
REMARK  192  A    between atoms: _490  and  _491
REMARK  193  A    between atoms: _490  and  _493
REMARK  194  A    between atoms: _493  and  _494
REMARK  195  A    between atoms: _497  and  _499
REMARK  196  A    between atoms: _499  and  _500
REMARK  197  A    between atoms: _499  and  _502
REMARK  198  A    between atoms: _502  and  _503
REMARK  199  A    between atoms: _506  and  _508
REMARK  200  A    between atoms: _508  and  _509
REMARK  201  A    between atoms: _508  and  _511
REMARK  202  A    between atoms: _511  and  _512
REMARK  203  A    between atoms: _520  and  _521
REMARK  204  A    between atoms: _520  and  _523
REMARK  205  A    between atoms: _523  and  _524
REMARK  206  A    between atoms: _524  and  _525
REMARK  207  A    between atoms: _528  and  _530
REMARK  208  A    between atoms: _530  and  _531
REMARK  209  A    between atoms: _530  and  _533
REMARK  210  A    between atoms: _533  and  _534
REMARK  211  A    between atoms: _539  and  _541
REMARK  212  A    between atoms: _541  and  _542
REMARK  213  A    between atoms: _541  and  _544
REMARK  214  A    between atoms: _544  and  _545
REMARK  215  A    between atoms: _545  and  _546
REMARK  216  A    between atoms: _546  and  _547
REMARK  217  A    between atoms: _556  and  _558
REMARK  218  A    between atoms: _558  and  _559
REMARK  219  A    between atoms: _558  and  _561
REMARK  220  A    between atoms: _561  and  _562
REMARK  221  A    between atoms: _565  and  _567
REMARK  222  A    between atoms: _567  and  _568
REMARK  223  A    between atoms: _567  and  _570
REMARK  224  A    between atoms: _570  and  _571
REMARK  225  A    between atoms: _574  and  _576
REMARK  226  A    between atoms: _576  and  _577
REMARK  227  A    between atoms: _576  and  _579
REMARK  228  A    between atoms: _579  and  _580
REMARK  229  A    between atoms: _580  and  _581
REMARK  230  A    between atoms: _581  and  _582
REMARK  231  A    between atoms: _591  and  _593
REMARK  232  A    between atoms: _593  and  _594
REMARK  233  A    between atoms: _593  and  _596
REMARK  234  A    between atoms: _596  and  _597
REMARK  235  A    between atoms: _597  and  _598
REMARK  236  A    between atoms: _598  and  _599
REMARK  237  A    between atoms: _608  and  _610
REMARK  238  A    between atoms: _610  and  _611
REMARK  239  A    between atoms: _610  and  _613
REMARK  240  A    between atoms: _613  and  _614
REMARK  241  A    between atoms: _614  and  _615
REMARK  242  A    between atoms: _615  and  _616
REMARK  243  A    between atoms: _625  and  _627
REMARK  244  A    between atoms: _627  and  _628
REMARK  245  A    between atoms: _627  and  _630
REMARK  246  A    between atoms: _630  and  _631
REMARK  247  A    between atoms: _634  and  _636
REMARK  248  A    between atoms: _636  and  _637
REMARK  249  A    between atoms: _636  and  _639
REMARK  250  A    between atoms: _639  and  _640
REMARK  251  A    between atoms: _640  and  _641
REMARK                            x       y       z     vdW  Elec       q    Type
REMARK                         _______ _______ _______ _____ _____    ______ ____
ROOT
ATOM      1  O   HOH     1     -36.665  -0.386  10.987  0.00  0.00    +0.000 OA
ENDROOT
TORSDOF 0
REMARK  Name = ../refined-set-2016/3v4t/3v4t_pocket.pdb
REMARK  251 active torsions:
REMARK  status: ('A' for Active; 'I' for Inactive)
REMARK    1  A    between atoms: _1  and  _3
REMARK    2  A    between atoms: _3  and  _4
REMARK    3  A    between atoms: _3  and  _6
REMARK    4  A    between atoms: _6  and  _7
REMARK    5  A    between atoms: _7  and  _8
REMARK    6  A    between atoms: _8  and  _9
REMARK    7  A    between atoms: _9  and  _10
REMARK    8  A    between atoms: _16  and  _17
REMARK    9  A    between atoms: _16  and  _19
REMARK   10  A    between atoms: _19  and  _20
REMARK   11  A    between atoms: _25  and  _27
REMARK   12  A    between atoms: _27  and  _28
REMARK   13  A    between atoms: _31  and  _33
REMARK   14  A    between atoms: _33  and  _34
REMARK   15  A    between atoms: _37  and  _39
REMARK   16  A    between atoms: _39  and  _40
REMARK   17  A    between atoms: _39  and  _42
REMARK   18  A    between atoms: _42  and  _43
REMARK   19  A    between atoms: _47  and  _48
REMARK   20  A    between atoms: _53  and  _55
REMARK   21  A    between atoms: _55  and  _56
REMARK   22  A    between atoms: _55  and  _58
REMARK   23  A    between atoms: _58  and  _59
REMARK   24  A    between atoms: _62  and  _64
REMARK   25  A    between atoms: _64  and  _65
REMARK   26  A    between atoms: _64  and  _67
REMARK   27  A    between atoms: _67  and  _68
REMARK   28  A    between atoms: _68  and  _69
REMARK   29  A    between atoms: _73  and  _74
REMARK   30  A    between atoms: _73  and  _76
REMARK   31  A    between atoms: _76  and  _77
REMARK   32  A    between atoms: _77  and  _78
REMARK   33  A    between atoms: _78  and  _79
REMARK   34  A    between atoms: _88  and  _90
REMARK   35  A    between atoms: _90  and  _91
REMARK   36  A    between atoms: _94  and  _96
REMARK   37  A    between atoms: _96  and  _97
REMARK   38  A    between atoms: _96  and  _99
REMARK   39  A    between atoms: _99  and  _100
REMARK   40  A    between atoms: _102  and  _104
REMARK   41  A    between atoms: _104  and  _105
REMARK   42  A    between atoms: _104  and  _107
REMARK   43  A    between atoms: _107  and  _108
REMARK   44  A    between atoms: _113  and  _114
REMARK   45  A    between atoms: _113  and  _116
REMARK   46  A    between atoms: _116  and  _117
REMARK   47  A    between atoms: _127  and  _129
REMARK   48  A    between atoms: _129  and  _130
REMARK   49  A    between atoms: _129  and  _132
REMARK   50  A    between atoms: _132  and  _133
REMARK   51  A    between atoms: _136  and  _138
REMARK   52  A    between atoms: _138  and  _139
REMARK   53  A    between atoms: _141  and  _143
REMARK   54  A    between atoms: _143  and  _144
REMARK   55  A    between atoms: _147  and  _149
REMARK   56  A    between atoms: _149  and  _150
REMARK   57  A    between atoms: _149  and  _152
REMARK   58  A    between atoms: _152  and  _153
REMARK   59  A    between atoms: _153  and  _154
REMARK   60  A    between atoms: _154  and  _155
REMARK   61  A    between atoms: _165  and  _166
REMARK   62  A    between atoms: _171  and  _173
REMARK   63  A    between atoms: _173  and  _174
REMARK   64  A    between atoms: _173  and  _176
REMARK   65  A    between atoms: _179  and  _181
REMARK   66  A    between atoms: _181  and  _182
REMARK   67  A    between atoms: _181  and  _184
REMARK   68  A    between atoms: _184  and  _185
REMARK   69  A    between atoms: _188  and  _190
REMARK   70  A    between atoms: _190  and  _191
REMARK   71  A    between atoms: _190  and  _193
REMARK   72  A    between atoms: _193  and  _194
REMARK   73  A    between atoms: _197  and  _199
REMARK   74  A    between atoms: _199  and  _200
REMARK   75  A    between atoms: _199  and  _202
REMARK   76  A    between atoms: _202  and  _203
REMARK   77  A    between atoms: _208  and  _210
REMARK   78  A    between atoms: _210  and  _211
REMARK   79  A    between atoms: _210  and  _213
REMARK   80  A    between atoms: _213  and  _214
REMARK   81  A    between atoms: _217  and  _219
REMARK   82  A    between atoms: _219  and  _220
REMARK   83  A    between atoms: _219  and  _222
REMARK   84  A    between atoms: _222  and  _223
REMARK   85  A    between atoms: _229  and  _231
REMARK   86  A    between atoms: _231  and  _232
REMARK   87  A    between atoms: _234  and  _236
REMARK   88  A    between atoms: _236  and  _237
REMARK   89  A    between atoms: _236  and  _239
REMARK   90  A    between atoms: _239  and  _240
REMARK   91  A    between atoms: _240  and  _241
REMARK   92  A    between atoms: _243  and  _245
REMARK   93  A    between atoms: _245  and  _246
REMARK   94  A    between atoms: _245  and  _248
REMARK   95  A    between atoms: _248  and  _249
REMARK   96  A    between atoms: _252  and  _254
REMARK   97  A    between atoms: _254  and  _255
REMARK   98  A    between atoms: _254  and  _257
REMARK   99  A    between atoms: _257  and  _258
REMARK  100  A    between atoms: _258  and  _259
REMARK  101  A    between atoms: _259  and  _260
REMARK  102  A    between atoms: _260  and  _261
REMARK  103  A    between atoms: _265  and  _267
REMARK  104  A    between atoms: _267  and  _268
REMARK  105  A    between atoms: _267  and  _270
REMARK  106  A    between atoms: _275  and  _276
REMARK  107  A    between atoms: _275  and  _278
REMARK  108  A    between atoms: _278  and  _279
REMARK  109  A    between atoms: _281  and  _283
REMARK  110  A    between atoms: _283  and  _284
REMARK  111  A    between atoms: _283  and  _286
REMARK  112  A    between atoms: _289  and  _291
REMARK  113  A    between atoms: _291  and  _292
REMARK  114  A    between atoms: _294  and  _296
REMARK  115  A    between atoms: _296  and  _297
REMARK  116  A    between atoms: _300  and  _302
REMARK  117  A    between atoms: _302  and  _303
REMARK  118  A    between atoms: _302  and  _305
REMARK  119  A    between atoms: _305  and  _306
REMARK  120  A    between atoms: _309  and  _311
REMARK  121  A    between atoms: _311  and  _312
REMARK  122  A    between atoms: _311  and  _314
REMARK  123  A    between atoms: _317  and  _319
REMARK  124  A    between atoms: _319  and  _320
REMARK  125  A    between atoms: _319  and  _322
REMARK  126  A    between atoms: _322  and  _323
REMARK  127  A    between atoms: _326  and  _328
REMARK  128  A    between atoms: _328  and  _329
REMARK  129  A    between atoms: _332  and  _334
REMARK  130  A    between atoms: _334  and  _335
REMARK  131  A    between atoms: _334  and  _337
REMARK  132  A    between atoms: _337  and  _338
REMARK  133  A    between atoms: _338  and  _339
REMARK  134  A    between atoms: _342  and  _344
REMARK  135  A    between atoms: _344  and  _345
REMARK  136  A    between atoms: _344  and  _347
REMARK  137  A    between atoms: _347  and  _348
REMARK  138  A    between atoms: _348  and  _349
REMARK  139  A    between atoms: _352  and  _354
REMARK  140  A    between atoms: _354  and  _355
REMARK  141  A    between atoms: _354  and  _357
REMARK  142  A    between atoms: _357  and  _358
REMARK  143  A    between atoms: _361  and  _363
REMARK  144  A    between atoms: _363  and  _364
REMARK  145  A    between atoms: _363  and  _366
REMARK  146  A    between atoms: _366  and  _367
REMARK  147  A    between atoms: _367  and  _368
REMARK  148  A    between atoms: _368  and  _369
REMARK  149  A    between atoms: _378  and  _380
REMARK  150  A    between atoms: _380  and  _381
REMARK  151  A    between atoms: _380  and  _383
REMARK  152  A    between atoms: _383  and  _384
REMARK  153  A    between atoms: _387  and  _389
REMARK  154  A    between atoms: _389  and  _390
REMARK  155  A    between atoms: _389  and  _392
REMARK  156  A    between atoms: _392  and  _393
REMARK  157  A    between atoms: _396  and  _398
REMARK  158  A    between atoms: _398  and  _399
REMARK  159  A    between atoms: _403  and  _404
REMARK  160  A    between atoms: _409  and  _411
REMARK  161  A    between atoms: _411  and  _412
REMARK  162  A    between atoms: _411  and  _414
REMARK  163  A    between atoms: _414  and  _415
REMARK  164  A    between atoms: _420  and  _422
REMARK  165  A    between atoms: _422  and  _423
REMARK  166  A    between atoms: _422  and  _425
REMARK  167  A    between atoms: _425  and  _426
REMARK  168  A    between atoms: _433  and  _434
REMARK  169  A    between atoms: _439  and  _441
REMARK  170  A    between atoms: _441  and  _442
REMARK  171  A    between atoms: _441  and  _444
REMARK  172  A    between atoms: _444  and  _445
REMARK  173  A    between atoms: _448  and  _450
REMARK  174  A    between atoms: _450  and  _451
REMARK  175  A    between atoms: _450  and  _453
REMARK  176  A    between atoms: _453  and  _454
REMARK  177  A    between atoms: _457  and  _459
REMARK  178  A    between atoms: _459  and  _460
REMARK  179  A    between atoms: _459  and  _462
REMARK  180  A    between atoms: _462  and  _463
REMARK  181  A    between atoms: _463  and  _464
REMARK  182  A    between atoms: _468  and  _469
REMARK  183  A    between atoms: _468  and  _471
REMARK  184  A    between atoms: _471  and  _472
REMARK  185  A    between atoms: _472  and  _473
REMARK  186  A    between atoms: _478  and  _480
REMARK  187  A    between atoms: _480  and  _481
REMARK  188  A    between atoms: _480  and  _483
REMARK  189  A    between atoms: _483  and  _484
REMARK  190  A    between atoms: _484  and  _485
REMARK  191  A    between atoms: _488  and  _490
REMARK  192  A    between atoms: _490  and  _491
REMARK  193  A    between atoms: _490  and  _493
REMARK  194  A    between atoms: _493  and  _494
REMARK  195  A    between atoms: _497  and  _499
REMARK  196  A    between atoms: _499  and  _500
REMARK  197  A    between atoms: _499  and  _502
REMARK  198  A    between atoms: _502  and  _503
REMARK  199  A    between atoms: _506  and  _508
REMARK  200  A    between atoms: _508  and  _509
REMARK  201  A    between atoms: _508  and  _511
REMARK  202  A    between atoms: _511  and  _512
REMARK  203  A    between atoms: _520  and  _521
REMARK  204  A    between atoms: _520  and  _523
REMARK  205  A    between atoms: _523  and  _524
REMARK  206  A    between atoms: _524  and  _525
REMARK  207  A    between atoms: _528  and  _530
REMARK  208  A    between atoms: _530  and  _531
REMARK  209  A    between atoms: _530  and  _533
REMARK  210  A    between atoms: _533  and  _534
REMARK  211  A    between atoms: _539  and  _541
REMARK  212  A    between atoms: _541  and  _542
REMARK  213  A    between atoms: _541  and  _544
REMARK  214  A    between atoms: _544  and  _545
REMARK  215  A    between atoms: _545  and  _546
REMARK  216  A    between atoms: _546  and  _547
REMARK  217  A    between atoms: _556  and  _558
REMARK  218  A    between atoms: _558  and  _559
REMARK  219  A    between atoms: _558  and  _561
REMARK  220  A    between atoms: _561  and  _562
REMARK  221  A    between atoms: _565  and  _567
REMARK  222  A    between atoms: _567  and  _568
REMARK  223  A    between atoms: _567  and  _570
REMARK  224  A    between atoms: _570  and  _571
REMARK  225  A    between atoms: _574  and  _576
REMARK  226  A    between atoms: _576  and  _577
REMARK  227  A    between atoms: _576  and  _579
REMARK  228  A    between atoms: _579  and  _580
REMARK  229  A    between atoms: _580  and  _581
REMARK  230  A    between atoms: _581  and  _582
REMARK  231  A    between atoms: _591  and  _593
REMARK  232  A    between atoms: _593  and  _594
REMARK  233  A    between atoms: _593  and  _596
REMARK  234  A    between atoms: _596  and  _597
REMARK  235  A    between atoms: _597  and  _598
REMARK  236  A    between atoms: _598  and  _599
REMARK  237  A    between atoms: _608  and  _610
REMARK  238  A    between atoms: _610  and  _611
REMARK  239  A    between atoms: _610  and  _613
REMARK  240  A    between atoms: _613  and  _614
REMARK  241  A    between atoms: _614  and  _615
REMARK  242  A    between atoms: _615  and  _616
REMARK  243  A    between atoms: _625  and  _627
REMARK  244  A    between atoms: _627  and  _628
REMARK  245  A    between atoms: _627  and  _630
REMARK  246  A    between atoms: _630  and  _631
REMARK  247  A    between atoms: _634  and  _636
REMARK  248  A    between atoms: _636  and  _637
REMARK  249  A    between atoms: _636  and  _639
REMARK  250  A    between atoms: _639  and  _640
REMARK  251  A    between atoms: _640  and  _641
REMARK                            x       y       z     vdW  Elec       q    Type
REMARK                         _______ _______ _______ _____ _____    ______ ____
ROOT
ATOM      1  O   HOH     1     -37.931   4.083  16.574  0.00  0.00    +0.000 OA
ENDROOT
TORSDOF 0
REMARK  Name = ../refined-set-2016/3v4t/3v4t_pocket.pdb
REMARK  251 active torsions:
REMARK  status: ('A' for Active; 'I' for Inactive)
REMARK    1  A    between atoms: _1  and  _3
REMARK    2  A    between atoms: _3  and  _4
REMARK    3  A    between atoms: _3  and  _6
REMARK    4  A    between atoms: _6  and  _7
REMARK    5  A    between atoms: _7  and  _8
REMARK    6  A    between atoms: _8  and  _9
REMARK    7  A    between atoms: _9  and  _10
REMARK    8  A    between atoms: _16  and  _17
REMARK    9  A    between atoms: _16  and  _19
REMARK   10  A    between atoms: _19  and  _20
REMARK   11  A    between atoms: _25  and  _27
REMARK   12  A    between atoms: _27  and  _28
REMARK   13  A    between atoms: _31  and  _33
REMARK   14  A    between atoms: _33  and  _34
REMARK   15  A    between atoms: _37  and  _39
REMARK   16  A    between atoms: _39  and  _40
REMARK   17  A    between atoms: _39  and  _42
REMARK   18  A    between atoms: _42  and  _43
REMARK   19  A    between atoms: _47  and  _48
REMARK   20  A    between atoms: _53  and  _55
REMARK   21  A    between atoms: _55  and  _56
REMARK   22  A    between atoms: _55  and  _58
REMARK   23  A    between atoms: _58  and  _59
REMARK   24  A    between atoms: _62  and  _64
REMARK   25  A    between atoms: _64  and  _65
REMARK   26  A    between atoms: _64  and  _67
REMARK   27  A    between atoms: _67  and  _68
REMARK   28  A    between atoms: _68  and  _69
REMARK   29  A    between atoms: _73  and  _74
REMARK   30  A    between atoms: _73  and  _76
REMARK   31  A    between atoms: _76  and  _77
REMARK   32  A    between atoms: _77  and  _78
REMARK   33  A    between atoms: _78  and  _79
REMARK   34  A    between atoms: _88  and  _90
REMARK   35  A    between atoms: _90  and  _91
REMARK   36  A    between atoms: _94  and  _96
REMARK   37  A    between atoms: _96  and  _97
REMARK   38  A    between atoms: _96  and  _99
REMARK   39  A    between atoms: _99  and  _100
REMARK   40  A    between atoms: _102  and  _104
REMARK   41  A    between atoms: _104  and  _105
REMARK   42  A    between atoms: _104  and  _107
REMARK   43  A    between atoms: _107  and  _108
REMARK   44  A    between atoms: _113  and  _114
REMARK   45  A    between atoms: _113  and  _116
REMARK   46  A    between atoms: _116  and  _117
REMARK   47  A    between atoms: _127  and  _129
REMARK   48  A    between atoms: _129  and  _130
REMARK   49  A    between atoms: _129  and  _132
REMARK   50  A    between atoms: _132  and  _133
REMARK   51  A    between atoms: _136  and  _138
REMARK   52  A    between atoms: _138  and  _139
REMARK   53  A    between atoms: _141  and  _143
REMARK   54  A    between atoms: _143  and  _144
REMARK   55  A    between atoms: _147  and  _149
REMARK   56  A    between atoms: _149  and  _150
REMARK   57  A    between atoms: _149  and  _152
REMARK   58  A    between atoms: _152  and  _153
REMARK   59  A    between atoms: _153  and  _154
REMARK   60  A    between atoms: _154  and  _155
REMARK   61  A    between atoms: _165  and  _166
REMARK   62  A    between atoms: _171  and  _173
REMARK   63  A    between atoms: _173  and  _174
REMARK   64  A    between atoms: _173  and  _176
REMARK   65  A    between atoms: _179  and  _181
REMARK   66  A    between atoms: _181  and  _182
REMARK   67  A    between atoms: _181  and  _184
REMARK   68  A    between atoms: _184  and  _185
REMARK   69  A    between atoms: _188  and  _190
REMARK   70  A    between atoms: _190  and  _191
REMARK   71  A    between atoms: _190  and  _193
REMARK   72  A    between atoms: _193  and  _194
REMARK   73  A    between atoms: _197  and  _199
REMARK   74  A    between atoms: _199  and  _200
REMARK   75  A    between atoms: _199  and  _202
REMARK   76  A    between atoms: _202  and  _203
REMARK   77  A    between atoms: _208  and  _210
REMARK   78  A    between atoms: _210  and  _211
REMARK   79  A    between atoms: _210  and  _213
REMARK   80  A    between atoms: _213  and  _214
REMARK   81  A    between atoms: _217  and  _219
REMARK   82  A    between atoms: _219  and  _220
REMARK   83  A    between atoms: _219  and  _222
REMARK   84  A    between atoms: _222  and  _223
REMARK   85  A    between atoms: _229  and  _231
REMARK   86  A    between atoms: _231  and  _232
REMARK   87  A    between atoms: _234  and  _236
REMARK   88  A    between atoms: _236  and  _237
REMARK   89  A    between atoms: _236  and  _239
REMARK   90  A    between atoms: _239  and  _240
REMARK   91  A    between atoms: _240  and  _241
REMARK   92  A    between atoms: _243  and  _245
REMARK   93  A    between atoms: _245  and  _246
REMARK   94  A    between atoms: _245  and  _248
REMARK   95  A    between atoms: _248  and  _249
REMARK   96  A    between atoms: _252  and  _254
REMARK   97  A    between atoms: _254  and  _255
REMARK   98  A    between atoms: _254  and  _257
REMARK   99  A    between atoms: _257  and  _258
REMARK  100  A    between atoms: _258  and  _259
REMARK  101  A    between atoms: _259  and  _260
REMARK  102  A    between atoms: _260  and  _261
REMARK  103  A    between atoms: _265  and  _267
REMARK  104  A    between atoms: _267  and  _268
REMARK  105  A    between atoms: _267  and  _270
REMARK  106  A    between atoms: _275  and  _276
REMARK  107  A    between atoms: _275  and  _278
REMARK  108  A    between atoms: _278  and  _279
REMARK  109  A    between atoms: _281  and  _283
REMARK  110  A    between atoms: _283  and  _284
REMARK  111  A    between atoms: _283  and  _286
REMARK  112  A    between atoms: _289  and  _291
REMARK  113  A    between atoms: _291  and  _292
REMARK  114  A    between atoms: _294  and  _296
REMARK  115  A    between atoms: _296  and  _297
REMARK  116  A    between atoms: _300  and  _302
REMARK  117  A    between atoms: _302  and  _303
REMARK  118  A    between atoms: _302  and  _305
REMARK  119  A    between atoms: _305  and  _306
REMARK  120  A    between atoms: _309  and  _311
REMARK  121  A    between atoms: _311  and  _312
REMARK  122  A    between atoms: _311  and  _314
REMARK  123  A    between atoms: _317  and  _319
REMARK  124  A    between atoms: _319  and  _320
REMARK  125  A    between atoms: _319  and  _322
REMARK  126  A    between atoms: _322  and  _323
REMARK  127  A    between atoms: _326  and  _328
REMARK  128  A    between atoms: _328  and  _329
REMARK  129  A    between atoms: _332  and  _334
REMARK  130  A    between atoms: _334  and  _335
REMARK  131  A    between atoms: _334  and  _337
REMARK  132  A    between atoms: _337  and  _338
REMARK  133  A    between atoms: _338  and  _339
REMARK  134  A    between atoms: _342  and  _344
REMARK  135  A    between atoms: _344  and  _345
REMARK  136  A    between atoms: _344  and  _347
REMARK  137  A    between atoms: _347  and  _348
REMARK  138  A    between atoms: _348  and  _349
REMARK  139  A    between atoms: _352  and  _354
REMARK  140  A    between atoms: _354  and  _355
REMARK  141  A    between atoms: _354  and  _357
REMARK  142  A    between atoms: _357  and  _358
REMARK  143  A    between atoms: _361  and  _363
REMARK  144  A    between atoms: _363  and  _364
REMARK  145  A    between atoms: _363  and  _366
REMARK  146  A    between atoms: _366  and  _367
REMARK  147  A    between atoms: _367  and  _368
REMARK  148  A    between atoms: _368  and  _369
REMARK  149  A    between atoms: _378  and  _380
REMARK  150  A    between atoms: _380  and  _381
REMARK  151  A    between atoms: _380  and  _383
REMARK  152  A    between atoms: _383  and  _384
REMARK  153  A    between atoms: _387  and  _389
REMARK  154  A    between atoms: _389  and  _390
REMARK  155  A    between atoms: _389  and  _392
REMARK  156  A    between atoms: _392  and  _393
REMARK  157  A    between atoms: _396  and  _398
REMARK  158  A    between atoms: _398  and  _399
REMARK  159  A    between atoms: _403  and  _404
REMARK  160  A    between atoms: _409  and  _411
REMARK  161  A    between atoms: _411  and  _412
REMARK  162  A    between atoms: _411  and  _414
REMARK  163  A    between atoms: _414  and  _415
REMARK  164  A    between atoms: _420  and  _422
REMARK  165  A    between atoms: _422  and  _423
REMARK  166  A    between atoms: _422  and  _425
REMARK  167  A    between atoms: _425  and  _426
REMARK  168  A    between atoms: _433  and  _434
REMARK  169  A    between atoms: _439  and  _441
REMARK  170  A    between atoms: _441  and  _442
REMARK  171  A    between atoms: _441  and  _444
REMARK  172  A    between atoms: _444  and  _445
REMARK  173  A    between atoms: _448  and  _450
REMARK  174  A    between atoms: _450  and  _451
REMARK  175  A    between atoms: _450  and  _453
REMARK  176  A    between atoms: _453  and  _454
REMARK  177  A    between atoms: _457  and  _459
REMARK  178  A    between atoms: _459  and  _460
REMARK  179  A    between atoms: _459  and  _462
REMARK  180  A    between atoms: _462  and  _463
REMARK  181  A    between atoms: _463  and  _464
REMARK  182  A    between atoms: _468  and  _469
REMARK  183  A    between atoms: _468  and  _471
REMARK  184  A    between atoms: _471  and  _472
REMARK  185  A    between atoms: _472  and  _473
REMARK  186  A    between atoms: _478  and  _480
REMARK  187  A    between atoms: _480  and  _481
REMARK  188  A    between atoms: _480  and  _483
REMARK  189  A    between atoms: _483  and  _484
REMARK  190  A    between atoms: _484  and  _485
REMARK  191  A    between atoms: _488  and  _490
REMARK  192  A    between atoms: _490  and  _491
REMARK  193  A    between atoms: _490  and  _493
REMARK  194  A    between atoms: _493  and  _494
REMARK  195  A    between atoms: _497  and  _499
REMARK  196  A    between atoms: _499  and  _500
REMARK  197  A    between atoms: _499  and  _502
REMARK  198  A    between atoms: _502  and  _503
REMARK  199  A    between atoms: _506  and  _508
REMARK  200  A    between atoms: _508  and  _509
REMARK  201  A    between atoms: _508  and  _511
REMARK  202  A    between atoms: _511  and  _512
REMARK  203  A    between atoms: _520  and  _521
REMARK  204  A    between atoms: _520  and  _523
REMARK  205  A    between atoms: _523  and  _524
REMARK  206  A    between atoms: _524  and  _525
REMARK  207  A    between atoms: _528  and  _530
REMARK  208  A    between atoms: _530  and  _531
REMARK  209  A    between atoms: _530  and  _533
REMARK  210  A    between atoms: _533  and  _534
REMARK  211  A    between atoms: _539  and  _541
REMARK  212  A    between atoms: _541  and  _542
REMARK  213  A    between atoms: _541  and  _544
REMARK  214  A    between atoms: _544  and  _545
REMARK  215  A    between atoms: _545  and  _546
REMARK  216  A    between atoms: _546  and  _547
REMARK  217  A    between atoms: _556  and  _558
REMARK  218  A    between atoms: _558  and  _559
REMARK  219  A    between atoms: _558  and  _561
REMARK  220  A    between atoms: _561  and  _562
REMARK  221  A    between atoms: _565  and  _567
REMARK  222  A    between atoms: _567  and  _568
REMARK  223  A    between atoms: _567  and  _570
REMARK  224  A    between atoms: _570  and  _571
REMARK  225  A    between atoms: _574  and  _576
REMARK  226  A    between atoms: _576  and  _577
REMARK  227  A    between atoms: _576  and  _579
REMARK  228  A    between atoms: _579  and  _580
REMARK  229  A    between atoms: _580  and  _581
REMARK  230  A    between atoms: _581  and  _582
REMARK  231  A    between atoms: _591  and  _593
REMARK  232  A    between atoms: _593  and  _594
REMARK  233  A    between atoms: _593  and  _596
REMARK  234  A    between atoms: _596  and  _597
REMARK  235  A    between atoms: _597  and  _598
REMARK  236  A    between atoms: _598  and  _599
REMARK  237  A    between atoms: _608  and  _610
REMARK  238  A    between atoms: _610  and  _611
REMARK  239  A    between atoms: _610  and  _613
REMARK  240  A    between atoms: _613  and  _614
REMARK  241  A    between atoms: _614  and  _615
REMARK  242  A    between atoms: _615  and  _616
REMARK  243  A    between atoms: _625  and  _627
REMARK  244  A    between atoms: _627  and  _628
REMARK  245  A    between atoms: _627  and  _630
REMARK  246  A    between atoms: _630  and  _631
REMARK  247  A    between atoms: _634  and  _636
REMARK  248  A    between atoms: _636  and  _637
REMARK  249  A    between atoms: _636  and  _639
REMARK  250  A    between atoms: _639  and  _640
REMARK  251  A    between atoms: _640  and  _641
REMARK                            x       y       z     vdW  Elec       q    Type
REMARK                         _______ _______ _______ _____ _____    ______ ____
ROOT
ATOM      1  O   HOH     1     -28.913   9.721  12.411  0.00  0.00    +0.000 OA
ENDROOT
TORSDOF 0
REMARK  Name = ../refined-set-2016/3v4t/3v4t_pocket.pdb
REMARK  251 active torsions:
REMARK  status: ('A' for Active; 'I' for Inactive)
REMARK    1  A    between atoms: _1  and  _3
REMARK    2  A    between atoms: _3  and  _4
REMARK    3  A    between atoms: _3  and  _6
REMARK    4  A    between atoms: _6  and  _7
REMARK    5  A    between atoms: _7  and  _8
REMARK    6  A    between atoms: _8  and  _9
REMARK    7  A    between atoms: _9  and  _10
REMARK    8  A    between atoms: _16  and  _17
REMARK    9  A    between atoms: _16  and  _19
REMARK   10  A    between atoms: _19  and  _20
REMARK   11  A    between atoms: _25  and  _27
REMARK   12  A    between atoms: _27  and  _28
REMARK   13  A    between atoms: _31  and  _33
REMARK   14  A    between atoms: _33  and  _34
REMARK   15  A    between atoms: _37  and  _39
REMARK   16  A    between atoms: _39  and  _40
REMARK   17  A    between atoms: _39  and  _42
REMARK   18  A    between atoms: _42  and  _43
REMARK   19  A    between atoms: _47  and  _48
REMARK   20  A    between atoms: _53  and  _55
REMARK   21  A    between atoms: _55  and  _56
REMARK   22  A    between atoms: _55  and  _58
REMARK   23  A    between atoms: _58  and  _59
REMARK   24  A    between atoms: _62  and  _64
REMARK   25  A    between atoms: _64  and  _65
REMARK   26  A    between atoms: _64  and  _67
REMARK   27  A    between atoms: _67  and  _68
REMARK   28  A    between atoms: _68  and  _69
REMARK   29  A    between atoms: _73  and  _74
REMARK   30  A    between atoms: _73  and  _76
REMARK   31  A    between atoms: _76  and  _77
REMARK   32  A    between atoms: _77  and  _78
REMARK   33  A    between atoms: _78  and  _79
REMARK   34  A    between atoms: _88  and  _90
REMARK   35  A    between atoms: _90  and  _91
REMARK   36  A    between atoms: _94  and  _96
REMARK   37  A    between atoms: _96  and  _97
REMARK   38  A    between atoms: _96  and  _99
REMARK   39  A    between atoms: _99  and  _100
REMARK   40  A    between atoms: _102  and  _104
REMARK   41  A    between atoms: _104  and  _105
REMARK   42  A    between atoms: _104  and  _107
REMARK   43  A    between atoms: _107  and  _108
REMARK   44  A    between atoms: _113  and  _114
REMARK   45  A    between atoms: _113  and  _116
REMARK   46  A    between atoms: _116  and  _117
REMARK   47  A    between atoms: _127  and  _129
REMARK   48  A    between atoms: _129  and  _130
REMARK   49  A    between atoms: _129  and  _132
REMARK   50  A    between atoms: _132  and  _133
REMARK   51  A    between atoms: _136  and  _138
REMARK   52  A    between atoms: _138  and  _139
REMARK   53  A    between atoms: _141  and  _143
REMARK   54  A    between atoms: _143  and  _144
REMARK   55  A    between atoms: _147  and  _149
REMARK   56  A    between atoms: _149  and  _150
REMARK   57  A    between atoms: _149  and  _152
REMARK   58  A    between atoms: _152  and  _153
REMARK   59  A    between atoms: _153  and  _154
REMARK   60  A    between atoms: _154  and  _155
REMARK   61  A    between atoms: _165  and  _166
REMARK   62  A    between atoms: _171  and  _173
REMARK   63  A    between atoms: _173  and  _174
REMARK   64  A    between atoms: _173  and  _176
REMARK   65  A    between atoms: _179  and  _181
REMARK   66  A    between atoms: _181  and  _182
REMARK   67  A    between atoms: _181  and  _184
REMARK   68  A    between atoms: _184  and  _185
REMARK   69  A    between atoms: _188  and  _190
REMARK   70  A    between atoms: _190  and  _191
REMARK   71  A    between atoms: _190  and  _193
REMARK   72  A    between atoms: _193  and  _194
REMARK   73  A    between atoms: _197  and  _199
REMARK   74  A    between atoms: _199  and  _200
REMARK   75  A    between atoms: _199  and  _202
REMARK   76  A    between atoms: _202  and  _203
REMARK   77  A    between atoms: _208  and  _210
REMARK   78  A    between atoms: _210  and  _211
REMARK   79  A    between atoms: _210  and  _213
REMARK   80  A    between atoms: _213  and  _214
REMARK   81  A    between atoms: _217  and  _219
REMARK   82  A    between atoms: _219  and  _220
REMARK   83  A    between atoms: _219  and  _222
REMARK   84  A    between atoms: _222  and  _223
REMARK   85  A    between atoms: _229  and  _231
REMARK   86  A    between atoms: _231  and  _232
REMARK   87  A    between atoms: _234  and  _236
REMARK   88  A    between atoms: _236  and  _237
REMARK   89  A    between atoms: _236  and  _239
REMARK   90  A    between atoms: _239  and  _240
REMARK   91  A    between atoms: _240  and  _241
REMARK   92  A    between atoms: _243  and  _245
REMARK   93  A    between atoms: _245  and  _246
REMARK   94  A    between atoms: _245  and  _248
REMARK   95  A    between atoms: _248  and  _249
REMARK   96  A    between atoms: _252  and  _254
REMARK   97  A    between atoms: _254  and  _255
REMARK   98  A    between atoms: _254  and  _257
REMARK   99  A    between atoms: _257  and  _258
REMARK  100  A    between atoms: _258  and  _259
REMARK  101  A    between atoms: _259  and  _260
REMARK  102  A    between atoms: _260  and  _261
REMARK  103  A    between atoms: _265  and  _267
REMARK  104  A    between atoms: _267  and  _268
REMARK  105  A    between atoms: _267  and  _270
REMARK  106  A    between atoms: _275  and  _276
REMARK  107  A    between atoms: _275  and  _278
REMARK  108  A    between atoms: _278  and  _279
REMARK  109  A    between atoms: _281  and  _283
REMARK  110  A    between atoms: _283  and  _284
REMARK  111  A    between atoms: _283  and  _286
REMARK  112  A    between atoms: _289  and  _291
REMARK  113  A    between atoms: _291  and  _292
REMARK  114  A    between atoms: _294  and  _296
REMARK  115  A    between atoms: _296  and  _297
REMARK  116  A    between atoms: _300  and  _302
REMARK  117  A    between atoms: _302  and  _303
REMARK  118  A    between atoms: _302  and  _305
REMARK  119  A    between atoms: _305  and  _306
REMARK  120  A    between atoms: _309  and  _311
REMARK  121  A    between atoms: _311  and  _312
REMARK  122  A    between atoms: _311  and  _314
REMARK  123  A    between atoms: _317  and  _319
REMARK  124  A    between atoms: _319  and  _320
REMARK  125  A    between atoms: _319  and  _322
REMARK  126  A    between atoms: _322  and  _323
REMARK  127  A    between atoms: _326  and  _328
REMARK  128  A    between atoms: _328  and  _329
REMARK  129  A    between atoms: _332  and  _334
REMARK  130  A    between atoms: _334  and  _335
REMARK  131  A    between atoms: _334  and  _337
REMARK  132  A    between atoms: _337  and  _338
REMARK  133  A    between atoms: _338  and  _339
REMARK  134  A    between atoms: _342  and  _344
REMARK  135  A    between atoms: _344  and  _345
REMARK  136  A    between atoms: _344  and  _347
REMARK  137  A    between atoms: _347  and  _348
REMARK  138  A    between atoms: _348  and  _349
REMARK  139  A    between atoms: _352  and  _354
REMARK  140  A    between atoms: _354  and  _355
REMARK  141  A    between atoms: _354  and  _357
REMARK  142  A    between atoms: _357  and  _358
REMARK  143  A    between atoms: _361  and  _363
REMARK  144  A    between atoms: _363  and  _364
REMARK  145  A    between atoms: _363  and  _366
REMARK  146  A    between atoms: _366  and  _367
REMARK  147  A    between atoms: _367  and  _368
REMARK  148  A    between atoms: _368  and  _369
REMARK  149  A    between atoms: _378  and  _380
REMARK  150  A    between atoms: _380  and  _381
REMARK  151  A    between atoms: _380  and  _383
REMARK  152  A    between atoms: _383  and  _384
REMARK  153  A    between atoms: _387  and  _389
REMARK  154  A    between atoms: _389  and  _390
REMARK  155  A    between atoms: _389  and  _392
REMARK  156  A    between atoms: _392  and  _393
REMARK  157  A    between atoms: _396  and  _398
REMARK  158  A    between atoms: _398  and  _399
REMARK  159  A    between atoms: _403  and  _404
REMARK  160  A    between atoms: _409  and  _411
REMARK  161  A    between atoms: _411  and  _412
REMARK  162  A    between atoms: _411  and  _414
REMARK  163  A    between atoms: _414  and  _415
REMARK  164  A    between atoms: _420  and  _422
REMARK  165  A    between atoms: _422  and  _423
REMARK  166  A    between atoms: _422  and  _425
REMARK  167  A    between atoms: _425  and  _426
REMARK  168  A    between atoms: _433  and  _434
REMARK  169  A    between atoms: _439  and  _441
REMARK  170  A    between atoms: _441  and  _442
REMARK  171  A    between atoms: _441  and  _444
REMARK  172  A    between atoms: _444  and  _445
REMARK  173  A    between atoms: _448  and  _450
REMARK  174  A    between atoms: _450  and  _451
REMARK  175  A    between atoms: _450  and  _453
REMARK  176  A    between atoms: _453  and  _454
REMARK  177  A    between atoms: _457  and  _459
REMARK  178  A    between atoms: _459  and  _460
REMARK  179  A    between atoms: _459  and  _462
REMARK  180  A    between atoms: _462  and  _463
REMARK  181  A    between atoms: _463  and  _464
REMARK  182  A    between atoms: _468  and  _469
REMARK  183  A    between atoms: _468  and  _471
REMARK  184  A    between atoms: _471  and  _472
REMARK  185  A    between atoms: _472  and  _473
REMARK  186  A    between atoms: _478  and  _480
REMARK  187  A    between atoms: _480  and  _481
REMARK  188  A    between atoms: _480  and  _483
REMARK  189  A    between atoms: _483  and  _484
REMARK  190  A    between atoms: _484  and  _485
REMARK  191  A    between atoms: _488  and  _490
REMARK  192  A    between atoms: _490  and  _491
REMARK  193  A    between atoms: _490  and  _493
REMARK  194  A    between atoms: _493  and  _494
REMARK  195  A    between atoms: _497  and  _499
REMARK  196  A    between atoms: _499  and  _500
REMARK  197  A    between atoms: _499  and  _502
REMARK  198  A    between atoms: _502  and  _503
REMARK  199  A    between atoms: _506  and  _508
REMARK  200  A    between atoms: _508  and  _509
REMARK  201  A    between atoms: _508  and  _511
REMARK  202  A    between atoms: _511  and  _512
REMARK  203  A    between atoms: _520  and  _521
REMARK  204  A    between atoms: _520  and  _523
REMARK  205  A    between atoms: _523  and  _524
REMARK  206  A    between atoms: _524  and  _525
REMARK  207  A    between atoms: _528  and  _530
REMARK  208  A    between atoms: _530  and  _531
REMARK  209  A    between atoms: _530  and  _533
REMARK  210  A    between atoms: _533  and  _534
REMARK  211  A    between atoms: _539  and  _541
REMARK  212  A    between atoms: _541  and  _542
REMARK  213  A    between atoms: _541  and  _544
REMARK  214  A    between atoms: _544  and  _545
REMARK  215  A    between atoms: _545  and  _546
REMARK  216  A    between atoms: _546  and  _547
REMARK  217  A    between atoms: _556  and  _558
REMARK  218  A    between atoms: _558  and  _559
REMARK  219  A    between atoms: _558  and  _561
REMARK  220  A    between atoms: _561  and  _562
REMARK  221  A    between atoms: _565  and  _567
REMARK  222  A    between atoms: _567  and  _568
REMARK  223  A    between atoms: _567  and  _570
REMARK  224  A    between atoms: _570  and  _571
REMARK  225  A    between atoms: _574  and  _576
REMARK  226  A    between atoms: _576  and  _577
REMARK  227  A    between atoms: _576  and  _579
REMARK  228  A    between atoms: _579  and  _580
REMARK  229  A    between atoms: _580  and  _581
REMARK  230  A    between atoms: _581  and  _582
REMARK  231  A    between atoms: _591  and  _593
REMARK  232  A    between atoms: _593  and  _594
REMARK  233  A    between atoms: _593  and  _596
REMARK  234  A    between atoms: _596  and  _597
REMARK  235  A    between atoms: _597  and  _598
REMARK  236  A    between atoms: _598  and  _599
REMARK  237  A    between atoms: _608  and  _610
REMARK  238  A    between atoms: _610  and  _611
REMARK  239  A    between atoms: _610  and  _613
REMARK  240  A    between atoms: _613  and  _614
REMARK  241  A    between atoms: _614  and  _615
REMARK  242  A    between atoms: _615  and  _616
REMARK  243  A    between atoms: _625  and  _627
REMARK  244  A    between atoms: _627  and  _628
REMARK  245  A    between atoms: _627  and  _630
REMARK  246  A    between atoms: _630  and  _631
REMARK  247  A    between atoms: _634  and  _636
REMARK  248  A    between atoms: _636  and  _637
REMARK  249  A    between atoms: _636  and  _639
REMARK  250  A    between atoms: _639  and  _640
REMARK  251  A    between atoms: _640  and  _641
REMARK                            x       y       z     vdW  Elec       q    Type
REMARK                         _______ _______ _______ _____ _____    ______ ____
ROOT
ATOM      1  O   HOH     1     -38.387  12.497  12.461  0.00  0.00    +0.000 OA
ENDROOT
TORSDOF 0
REMARK  Name = ../refined-set-2016/3v4t/3v4t_pocket.pdb
REMARK  251 active torsions:
REMARK  status: ('A' for Active; 'I' for Inactive)
REMARK    1  A    between atoms: _1  and  _3
REMARK    2  A    between atoms: _3  and  _4
REMARK    3  A    between atoms: _3  and  _6
REMARK    4  A    between atoms: _6  and  _7
REMARK    5  A    between atoms: _7  and  _8
REMARK    6  A    between atoms: _8  and  _9
REMARK    7  A    between atoms: _9  and  _10
REMARK    8  A    between atoms: _16  and  _17
REMARK    9  A    between atoms: _16  and  _19
REMARK   10  A    between atoms: _19  and  _20
REMARK   11  A    between atoms: _25  and  _27
REMARK   12  A    between atoms: _27  and  _28
REMARK   13  A    between atoms: _31  and  _33
REMARK   14  A    between atoms: _33  and  _34
REMARK   15  A    between atoms: _37  and  _39
REMARK   16  A    between atoms: _39  and  _40
REMARK   17  A    between atoms: _39  and  _42
REMARK   18  A    between atoms: _42  and  _43
REMARK   19  A    between atoms: _47  and  _48
REMARK   20  A    between atoms: _53  and  _55
REMARK   21  A    between atoms: _55  and  _56
REMARK   22  A    between atoms: _55  and  _58
REMARK   23  A    between atoms: _58  and  _59
REMARK   24  A    between atoms: _62  and  _64
REMARK   25  A    between atoms: _64  and  _65
REMARK   26  A    between atoms: _64  and  _67
REMARK   27  A    between atoms: _67  and  _68
REMARK   28  A    between atoms: _68  and  _69
REMARK   29  A    between atoms: _73  and  _74
REMARK   30  A    between atoms: _73  and  _76
REMARK   31  A    between atoms: _76  and  _77
REMARK   32  A    between atoms: _77  and  _78
REMARK   33  A    between atoms: _78  and  _79
REMARK   34  A    between atoms: _88  and  _90
REMARK   35  A    between atoms: _90  and  _91
REMARK   36  A    between atoms: _94  and  _96
REMARK   37  A    between atoms: _96  and  _97
REMARK   38  A    between atoms: _96  and  _99
REMARK   39  A    between atoms: _99  and  _100
REMARK   40  A    between atoms: _102  and  _104
REMARK   41  A    between atoms: _104  and  _105
REMARK   42  A    between atoms: _104  and  _107
REMARK   43  A    between atoms: _107  and  _108
REMARK   44  A    between atoms: _113  and  _114
REMARK   45  A    between atoms: _113  and  _116
REMARK   46  A    between atoms: _116  and  _117
REMARK   47  A    between atoms: _127  and  _129
REMARK   48  A    between atoms: _129  and  _130
REMARK   49  A    between atoms: _129  and  _132
REMARK   50  A    between atoms: _132  and  _133
REMARK   51  A    between atoms: _136  and  _138
REMARK   52  A    between atoms: _138  and  _139
REMARK   53  A    between atoms: _141  and  _143
REMARK   54  A    between atoms: _143  and  _144
REMARK   55  A    between atoms: _147  and  _149
REMARK   56  A    between atoms: _149  and  _150
REMARK   57  A    between atoms: _149  and  _152
REMARK   58  A    between atoms: _152  and  _153
REMARK   59  A    between atoms: _153  and  _154
REMARK   60  A    between atoms: _154  and  _155
REMARK   61  A    between atoms: _165  and  _166
REMARK   62  A    between atoms: _171  and  _173
REMARK   63  A    between atoms: _173  and  _174
REMARK   64  A    between atoms: _173  and  _176
REMARK   65  A    between atoms: _179  and  _181
REMARK   66  A    between atoms: _181  and  _182
REMARK   67  A    between atoms: _181  and  _184
REMARK   68  A    between atoms: _184  and  _185
REMARK   69  A    between atoms: _188  and  _190
REMARK   70  A    between atoms: _190  and  _191
REMARK   71  A    between atoms: _190  and  _193
REMARK   72  A    between atoms: _193  and  _194
REMARK   73  A    between atoms: _197  and  _199
REMARK   74  A    between atoms: _199  and  _200
REMARK   75  A    between atoms: _199  and  _202
REMARK   76  A    between atoms: _202  and  _203
REMARK   77  A    between atoms: _208  and  _210
REMARK   78  A    between atoms: _210  and  _211
REMARK   79  A    between atoms: _210  and  _213
REMARK   80  A    between atoms: _213  and  _214
REMARK   81  A    between atoms: _217  and  _219
REMARK   82  A    between atoms: _219  and  _220
REMARK   83  A    between atoms: _219  and  _222
REMARK   84  A    between atoms: _222  and  _223
REMARK   85  A    between atoms: _229  and  _231
REMARK   86  A    between atoms: _231  and  _232
REMARK   87  A    between atoms: _234  and  _236
REMARK   88  A    between atoms: _236  and  _237
REMARK   89  A    between atoms: _236  and  _239
REMARK   90  A    between atoms: _239  and  _240
REMARK   91  A    between atoms: _240  and  _241
REMARK   92  A    between atoms: _243  and  _245
REMARK   93  A    between atoms: _245  and  _246
REMARK   94  A    between atoms: _245  and  _248
REMARK   95  A    between atoms: _248  and  _249
REMARK   96  A    between atoms: _252  and  _254
REMARK   97  A    between atoms: _254  and  _255
REMARK   98  A    between atoms: _254  and  _257
REMARK   99  A    between atoms: _257  and  _258
REMARK  100  A    between atoms: _258  and  _259
REMARK  101  A    between atoms: _259  and  _260
REMARK  102  A    between atoms: _260  and  _261
REMARK  103  A    between atoms: _265  and  _267
REMARK  104  A    between atoms: _267  and  _268
REMARK  105  A    between atoms: _267  and  _270
REMARK  106  A    between atoms: _275  and  _276
REMARK  107  A    between atoms: _275  and  _278
REMARK  108  A    between atoms: _278  and  _279
REMARK  109  A    between atoms: _281  and  _283
REMARK  110  A    between atoms: _283  and  _284
REMARK  111  A    between atoms: _283  and  _286
REMARK  112  A    between atoms: _289  and  _291
REMARK  113  A    between atoms: _291  and  _292
REMARK  114  A    between atoms: _294  and  _296
REMARK  115  A    between atoms: _296  and  _297
REMARK  116  A    between atoms: _300  and  _302
REMARK  117  A    between atoms: _302  and  _303
REMARK  118  A    between atoms: _302  and  _305
REMARK  119  A    between atoms: _305  and  _306
REMARK  120  A    between atoms: _309  and  _311
REMARK  121  A    between atoms: _311  and  _312
REMARK  122  A    between atoms: _311  and  _314
REMARK  123  A    between atoms: _317  and  _319
REMARK  124  A    between atoms: _319  and  _320
REMARK  125  A    between atoms: _319  and  _322
REMARK  126  A    between atoms: _322  and  _323
REMARK  127  A    between atoms: _326  and  _328
REMARK  128  A    between atoms: _328  and  _329
REMARK  129  A    between atoms: _332  and  _334
REMARK  130  A    between atoms: _334  and  _335
REMARK  131  A    between atoms: _334  and  _337
REMARK  132  A    between atoms: _337  and  _338
REMARK  133  A    between atoms: _338  and  _339
REMARK  134  A    between atoms: _342  and  _344
REMARK  135  A    between atoms: _344  and  _345
REMARK  136  A    between atoms: _344  and  _347
REMARK  137  A    between atoms: _347  and  _348
REMARK  138  A    between atoms: _348  and  _349
REMARK  139  A    between atoms: _352  and  _354
REMARK  140  A    between atoms: _354  and  _355
REMARK  141  A    between atoms: _354  and  _357
REMARK  142  A    between atoms: _357  and  _358
REMARK  143  A    between atoms: _361  and  _363
REMARK  144  A    between atoms: _363  and  _364
REMARK  145  A    between atoms: _363  and  _366
REMARK  146  A    between atoms: _366  and  _367
REMARK  147  A    between atoms: _367  and  _368
REMARK  148  A    between atoms: _368  and  _369
REMARK  149  A    between atoms: _378  and  _380
REMARK  150  A    between atoms: _380  and  _381
REMARK  151  A    between atoms: _380  and  _383
REMARK  152  A    between atoms: _383  and  _384
REMARK  153  A    between atoms: _387  and  _389
REMARK  154  A    between atoms: _389  and  _390
REMARK  155  A    between atoms: _389  and  _392
REMARK  156  A    between atoms: _392  and  _393
REMARK  157  A    between atoms: _396  and  _398
REMARK  158  A    between atoms: _398  and  _399
REMARK  159  A    between atoms: _403  and  _404
REMARK  160  A    between atoms: _409  and  _411
REMARK  161  A    between atoms: _411  and  _412
REMARK  162  A    between atoms: _411  and  _414
REMARK  163  A    between atoms: _414  and  _415
REMARK  164  A    between atoms: _420  and  _422
REMARK  165  A    between atoms: _422  and  _423
REMARK  166  A    between atoms: _422  and  _425
REMARK  167  A    between atoms: _425  and  _426
REMARK  168  A    between atoms: _433  and  _434
REMARK  169  A    between atoms: _439  and  _441
REMARK  170  A    between atoms: _441  and  _442
REMARK  171  A    between atoms: _441  and  _444
REMARK  172  A    between atoms: _444  and  _445
REMARK  173  A    between atoms: _448  and  _450
REMARK  174  A    between atoms: _450  and  _451
REMARK  175  A    between atoms: _450  and  _453
REMARK  176  A    between atoms: _453  and  _454
REMARK  177  A    between atoms: _457  and  _459
REMARK  178  A    between atoms: _459  and  _460
REMARK  179  A    between atoms: _459  and  _462
REMARK  180  A    between atoms: _462  and  _463
REMARK  181  A    between atoms: _463  and  _464
REMARK  182  A    between atoms: _468  and  _469
REMARK  183  A    between atoms: _468  and  _471
REMARK  184  A    between atoms: _471  and  _472
REMARK  185  A    between atoms: _472  and  _473
REMARK  186  A    between atoms: _478  and  _480
REMARK  187  A    between atoms: _480  and  _481
REMARK  188  A    between atoms: _480  and  _483
REMARK  189  A    between atoms: _483  and  _484
REMARK  190  A    between atoms: _484  and  _485
REMARK  191  A    between atoms: _488  and  _490
REMARK  192  A    between atoms: _490  and  _491
REMARK  193  A    between atoms: _490  and  _493
REMARK  194  A    between atoms: _493  and  _494
REMARK  195  A    between atoms: _497  and  _499
REMARK  196  A    between atoms: _499  and  _500
REMARK  197  A    between atoms: _499  and  _502
REMARK  198  A    between atoms: _502  and  _503
REMARK  199  A    between atoms: _506  and  _508
REMARK  200  A    between atoms: _508  and  _509
REMARK  201  A    between atoms: _508  and  _511
REMARK  202  A    between atoms: _511  and  _512
REMARK  203  A    between atoms: _520  and  _521
REMARK  204  A    between atoms: _520  and  _523
REMARK  205  A    between atoms: _523  and  _524
REMARK  206  A    between atoms: _524  and  _525
REMARK  207  A    between atoms: _528  and  _530
REMARK  208  A    between atoms: _530  and  _531
REMARK  209  A    between atoms: _530  and  _533
REMARK  210  A    between atoms: _533  and  _534
REMARK  211  A    between atoms: _539  and  _541
REMARK  212  A    between atoms: _541  and  _542
REMARK  213  A    between atoms: _541  and  _544
REMARK  214  A    between atoms: _544  and  _545
REMARK  215  A    between atoms: _545  and  _546
REMARK  216  A    between atoms: _546  and  _547
REMARK  217  A    between atoms: _556  and  _558
REMARK  218  A    between atoms: _558  and  _559
REMARK  219  A    between atoms: _558  and  _561
REMARK  220  A    between atoms: _561  and  _562
REMARK  221  A    between atoms: _565  and  _567
REMARK  222  A    between atoms: _567  and  _568
REMARK  223  A    between atoms: _567  and  _570
REMARK  224  A    between atoms: _570  and  _571
REMARK  225  A    between atoms: _574  and  _576
REMARK  226  A    between atoms: _576  and  _577
REMARK  227  A    between atoms: _576  and  _579
REMARK  228  A    between atoms: _579  and  _580
REMARK  229  A    between atoms: _580  and  _581
REMARK  230  A    between atoms: _581  and  _582
REMARK  231  A    between atoms: _591  and  _593
REMARK  232  A    between atoms: _593  and  _594
REMARK  233  A    between atoms: _593  and  _596
REMARK  234  A    between atoms: _596  and  _597
REMARK  235  A    between atoms: _597  and  _598
REMARK  236  A    between atoms: _598  and  _599
REMARK  237  A    between atoms: _608  and  _610
REMARK  238  A    between atoms: _610  and  _611
REMARK  239  A    between atoms: _610  and  _613
REMARK  240  A    between atoms: _613  and  _614
REMARK  241  A    between atoms: _614  and  _615
REMARK  242  A    between atoms: _615  and  _616
REMARK  243  A    between atoms: _625  and  _627
REMARK  244  A    between atoms: _627  and  _628
REMARK  245  A    between atoms: _627  and  _630
REMARK  246  A    between atoms: _630  and  _631
REMARK  247  A    between atoms: _634  and  _636
REMARK  248  A    between atoms: _636  and  _637
REMARK  249  A    between atoms: _636  and  _639
REMARK  250  A    between atoms: _639  and  _640
REMARK  251  A    between atoms: _640  and  _641
REMARK                            x       y       z     vdW  Elec       q    Type
REMARK                         _______ _______ _______ _____ _____    ______ ____
ROOT
ATOM      1  O   HOH     1     -37.188  16.048   9.307  0.00  0.00    +0.000 OA
ENDROOT
TORSDOF 0
REMARK  Name = ../refined-set-2016/3v4t/3v4t_pocket.pdb
REMARK  251 active torsions:
REMARK  status: ('A' for Active; 'I' for Inactive)
REMARK    1  A    between atoms: _1  and  _3
REMARK    2  A    between atoms: _3  and  _4
REMARK    3  A    between atoms: _3  and  _6
REMARK    4  A    between atoms: _6  and  _7
REMARK    5  A    between atoms: _7  and  _8
REMARK    6  A    between atoms: _8  and  _9
REMARK    7  A    between atoms: _9  and  _10
REMARK    8  A    between atoms: _16  and  _17
REMARK    9  A    between atoms: _16  and  _19
REMARK   10  A    between atoms: _19  and  _20
REMARK   11  A    between atoms: _25  and  _27
REMARK   12  A    between atoms: _27  and  _28
REMARK   13  A    between atoms: _31  and  _33
REMARK   14  A    between atoms: _33  and  _34
REMARK   15  A    between atoms: _37  and  _39
REMARK   16  A    between atoms: _39  and  _40
REMARK   17  A    between atoms: _39  and  _42
REMARK   18  A    between atoms: _42  and  _43
REMARK   19  A    between atoms: _47  and  _48
REMARK   20  A    between atoms: _53  and  _55
REMARK   21  A    between atoms: _55  and  _56
REMARK   22  A    between atoms: _55  and  _58
REMARK   23  A    between atoms: _58  and  _59
REMARK   24  A    between atoms: _62  and  _64
REMARK   25  A    between atoms: _64  and  _65
REMARK   26  A    between atoms: _64  and  _67
REMARK   27  A    between atoms: _67  and  _68
REMARK   28  A    between atoms: _68  and  _69
REMARK   29  A    between atoms: _73  and  _74
REMARK   30  A    between atoms: _73  and  _76
REMARK   31  A    between atoms: _76  and  _77
REMARK   32  A    between atoms: _77  and  _78
REMARK   33  A    between atoms: _78  and  _79
REMARK   34  A    between atoms: _88  and  _90
REMARK   35  A    between atoms: _90  and  _91
REMARK   36  A    between atoms: _94  and  _96
REMARK   37  A    between atoms: _96  and  _97
REMARK   38  A    between atoms: _96  and  _99
REMARK   39  A    between atoms: _99  and  _100
REMARK   40  A    between atoms: _102  and  _104
REMARK   41  A    between atoms: _104  and  _105
REMARK   42  A    between atoms: _104  and  _107
REMARK   43  A    between atoms: _107  and  _108
REMARK   44  A    between atoms: _113  and  _114
REMARK   45  A    between atoms: _113  and  _116
REMARK   46  A    between atoms: _116  and  _117
REMARK   47  A    between atoms: _127  and  _129
REMARK   48  A    between atoms: _129  and  _130
REMARK   49  A    between atoms: _129  and  _132
REMARK   50  A    between atoms: _132  and  _133
REMARK   51  A    between atoms: _136  and  _138
REMARK   52  A    between atoms: _138  and  _139
REMARK   53  A    between atoms: _141  and  _143
REMARK   54  A    between atoms: _143  and  _144
REMARK   55  A    between atoms: _147  and  _149
REMARK   56  A    between atoms: _149  and  _150
REMARK   57  A    between atoms: _149  and  _152
REMARK   58  A    between atoms: _152  and  _153
REMARK   59  A    between atoms: _153  and  _154
REMARK   60  A    between atoms: _154  and  _155
REMARK   61  A    between atoms: _165  and  _166
REMARK   62  A    between atoms: _171  and  _173
REMARK   63  A    between atoms: _173  and  _174
REMARK   64  A    between atoms: _173  and  _176
REMARK   65  A    between atoms: _179  and  _181
REMARK   66  A    between atoms: _181  and  _182
REMARK   67  A    between atoms: _181  and  _184
REMARK   68  A    between atoms: _184  and  _185
REMARK   69  A    between atoms: _188  and  _190
REMARK   70  A    between atoms: _190  and  _191
REMARK   71  A    between atoms: _190  and  _193
REMARK   72  A    between atoms: _193  and  _194
REMARK   73  A    between atoms: _197  and  _199
REMARK   74  A    between atoms: _199  and  _200
REMARK   75  A    between atoms: _199  and  _202
REMARK   76  A    between atoms: _202  and  _203
REMARK   77  A    between atoms: _208  and  _210
REMARK   78  A    between atoms: _210  and  _211
REMARK   79  A    between atoms: _210  and  _213
REMARK   80  A    between atoms: _213  and  _214
REMARK   81  A    between atoms: _217  and  _219
REMARK   82  A    between atoms: _219  and  _220
REMARK   83  A    between atoms: _219  and  _222
REMARK   84  A    between atoms: _222  and  _223
REMARK   85  A    between atoms: _229  and  _231
REMARK   86  A    between atoms: _231  and  _232
REMARK   87  A    between atoms: _234  and  _236
REMARK   88  A    between atoms: _236  and  _237
REMARK   89  A    between atoms: _236  and  _239
REMARK   90  A    between atoms: _239  and  _240
REMARK   91  A    between atoms: _240  and  _241
REMARK   92  A    between atoms: _243  and  _245
REMARK   93  A    between atoms: _245  and  _246
REMARK   94  A    between atoms: _245  and  _248
REMARK   95  A    between atoms: _248  and  _249
REMARK   96  A    between atoms: _252  and  _254
REMARK   97  A    between atoms: _254  and  _255
REMARK   98  A    between atoms: _254  and  _257
REMARK   99  A    between atoms: _257  and  _258
REMARK  100  A    between atoms: _258  and  _259
REMARK  101  A    between atoms: _259  and  _260
REMARK  102  A    between atoms: _260  and  _261
REMARK  103  A    between atoms: _265  and  _267
REMARK  104  A    between atoms: _267  and  _268
REMARK  105  A    between atoms: _267  and  _270
REMARK  106  A    between atoms: _275  and  _276
REMARK  107  A    between atoms: _275  and  _278
REMARK  108  A    between atoms: _278  and  _279
REMARK  109  A    between atoms: _281  and  _283
REMARK  110  A    between atoms: _283  and  _284
REMARK  111  A    between atoms: _283  and  _286
REMARK  112  A    between atoms: _289  and  _291
REMARK  113  A    between atoms: _291  and  _292
REMARK  114  A    between atoms: _294  and  _296
REMARK  115  A    between atoms: _296  and  _297
REMARK  116  A    between atoms: _300  and  _302
REMARK  117  A    between atoms: _302  and  _303
REMARK  118  A    between atoms: _302  and  _305
REMARK  119  A    between atoms: _305  and  _306
REMARK  120  A    between atoms: _309  and  _311
REMARK  121  A    between atoms: _311  and  _312
REMARK  122  A    between atoms: _311  and  _314
REMARK  123  A    between atoms: _317  and  _319
REMARK  124  A    between atoms: _319  and  _320
REMARK  125  A    between atoms: _319  and  _322
REMARK  126  A    between atoms: _322  and  _323
REMARK  127  A    between atoms: _326  and  _328
REMARK  128  A    between atoms: _328  and  _329
REMARK  129  A    between atoms: _332  and  _334
REMARK  130  A    between atoms: _334  and  _335
REMARK  131  A    between atoms: _334  and  _337
REMARK  132  A    between atoms: _337  and  _338
REMARK  133  A    between atoms: _338  and  _339
REMARK  134  A    between atoms: _342  and  _344
REMARK  135  A    between atoms: _344  and  _345
REMARK  136  A    between atoms: _344  and  _347
REMARK  137  A    between atoms: _347  and  _348
REMARK  138  A    between atoms: _348  and  _349
REMARK  139  A    between atoms: _352  and  _354
REMARK  140  A    between atoms: _354  and  _355
REMARK  141  A    between atoms: _354  and  _357
REMARK  142  A    between atoms: _357  and  _358
REMARK  143  A    between atoms: _361  and  _363
REMARK  144  A    between atoms: _363  and  _364
REMARK  145  A    between atoms: _363  and  _366
REMARK  146  A    between atoms: _366  and  _367
REMARK  147  A    between atoms: _367  and  _368
REMARK  148  A    between atoms: _368  and  _369
REMARK  149  A    between atoms: _378  and  _380
REMARK  150  A    between atoms: _380  and  _381
REMARK  151  A    between atoms: _380  and  _383
REMARK  152  A    between atoms: _383  and  _384
REMARK  153  A    between atoms: _387  and  _389
REMARK  154  A    between atoms: _389  and  _390
REMARK  155  A    between atoms: _389  and  _392
REMARK  156  A    between atoms: _392  and  _393
REMARK  157  A    between atoms: _396  and  _398
REMARK  158  A    between atoms: _398  and  _399
REMARK  159  A    between atoms: _403  and  _404
REMARK  160  A    between atoms: _409  and  _411
REMARK  161  A    between atoms: _411  and  _412
REMARK  162  A    between atoms: _411  and  _414
REMARK  163  A    between atoms: _414  and  _415
REMARK  164  A    between atoms: _420  and  _422
REMARK  165  A    between atoms: _422  and  _423
REMARK  166  A    between atoms: _422  and  _425
REMARK  167  A    between atoms: _425  and  _426
REMARK  168  A    between atoms: _433  and  _434
REMARK  169  A    between atoms: _439  and  _441
REMARK  170  A    between atoms: _441  and  _442
REMARK  171  A    between atoms: _441  and  _444
REMARK  172  A    between atoms: _444  and  _445
REMARK  173  A    between atoms: _448  and  _450
REMARK  174  A    between atoms: _450  and  _451
REMARK  175  A    between atoms: _450  and  _453
REMARK  176  A    between atoms: _453  and  _454
REMARK  177  A    between atoms: _457  and  _459
REMARK  178  A    between atoms: _459  and  _460
REMARK  179  A    between atoms: _459  and  _462
REMARK  180  A    between atoms: _462  and  _463
REMARK  181  A    between atoms: _463  and  _464
REMARK  182  A    between atoms: _468  and  _469
REMARK  183  A    between atoms: _468  and  _471
REMARK  184  A    between atoms: _471  and  _472
REMARK  185  A    between atoms: _472  and  _473
REMARK  186  A    between atoms: _478  and  _480
REMARK  187  A    between atoms: _480  and  _481
REMARK  188  A    between atoms: _480  and  _483
REMARK  189  A    between atoms: _483  and  _484
REMARK  190  A    between atoms: _484  and  _485
REMARK  191  A    between atoms: _488  and  _490
REMARK  192  A    between atoms: _490  and  _491
REMARK  193  A    between atoms: _490  and  _493
REMARK  194  A    between atoms: _493  and  _494
REMARK  195  A    between atoms: _497  and  _499
REMARK  196  A    between atoms: _499  and  _500
REMARK  197  A    between atoms: _499  and  _502
REMARK  198  A    between atoms: _502  and  _503
REMARK  199  A    between atoms: _506  and  _508
REMARK  200  A    between atoms: _508  and  _509
REMARK  201  A    between atoms: _508  and  _511
REMARK  202  A    between atoms: _511  and  _512
REMARK  203  A    between atoms: _520  and  _521
REMARK  204  A    between atoms: _520  and  _523
REMARK  205  A    between atoms: _523  and  _524
REMARK  206  A    between atoms: _524  and  _525
REMARK  207  A    between atoms: _528  and  _530
REMARK  208  A    between atoms: _530  and  _531
REMARK  209  A    between atoms: _530  and  _533
REMARK  210  A    between atoms: _533  and  _534
REMARK  211  A    between atoms: _539  and  _541
REMARK  212  A    between atoms: _541  and  _542
REMARK  213  A    between atoms: _541  and  _544
REMARK  214  A    between atoms: _544  and  _545
REMARK  215  A    between atoms: _545  and  _546
REMARK  216  A    between atoms: _546  and  _547
REMARK  217  A    between atoms: _556  and  _558
REMARK  218  A    between atoms: _558  and  _559
REMARK  219  A    between atoms: _558  and  _561
REMARK  220  A    between atoms: _561  and  _562
REMARK  221  A    between atoms: _565  and  _567
REMARK  222  A    between atoms: _567  and  _568
REMARK  223  A    between atoms: _567  and  _570
REMARK  224  A    between atoms: _570  and  _571
REMARK  225  A    between atoms: _574  and  _576
REMARK  226  A    between atoms: _576  and  _577
REMARK  227  A    between atoms: _576  and  _579
REMARK  228  A    between atoms: _579  and  _580
REMARK  229  A    between atoms: _580  and  _581
REMARK  230  A    between atoms: _581  and  _582
REMARK  231  A    between atoms: _591  and  _593
REMARK  232  A    between atoms: _593  and  _594
REMARK  233  A    between atoms: _593  and  _596
REMARK  234  A    between atoms: _596  and  _597
REMARK  235  A    between atoms: _597  and  _598
REMARK  236  A    between atoms: _598  and  _599
REMARK  237  A    between atoms: _608  and  _610
REMARK  238  A    between atoms: _610  and  _611
REMARK  239  A    between atoms: _610  and  _613
REMARK  240  A    between atoms: _613  and  _614
REMARK  241  A    between atoms: _614  and  _615
REMARK  242  A    between atoms: _615  and  _616
REMARK  243  A    between atoms: _625  and  _627
REMARK  244  A    between atoms: _627  and  _628
REMARK  245  A    between atoms: _627  and  _630
REMARK  246  A    between atoms: _630  and  _631
REMARK  247  A    between atoms: _634  and  _636
REMARK  248  A    between atoms: _636  and  _637
REMARK  249  A    between atoms: _636  and  _639
REMARK  250  A    between atoms: _639  and  _640
REMARK  251  A    between atoms: _640  and  _641
REMARK                            x       y       z     vdW  Elec       q    Type
REMARK                         _______ _______ _______ _____ _____    ______ ____
ROOT
ATOM      1  O   HOH     1     -42.484   8.207   5.410  0.00  0.00    +0.000 OA
ENDROOT
TORSDOF 0
