REMARK  Name = ../refined-set-2016/2qci/2qci_pocket.pdb
REMARK  229 active torsions:
REMARK  status: ('A' for Active; 'I' for Inactive)
REMARK    1  A    between atoms: _1  and  _3
REMARK    2  A    between atoms: _3  and  _4
REMARK    3  A    between atoms: _3  and  _6
REMARK    4  A    between atoms: _6  and  _7
REMARK    5  A    between atoms: _7  and  _8
REMARK    6  A    between atoms: _8  and  _9
REMARK    7  A    between atoms: _18  and  _20
REMARK    8  A    between atoms: _20  and  _21
REMARK    9  A    between atoms: _20  and  _23
REMARK   10  A    between atoms: _23  and  _24
REMARK   11  A    between atoms: _27  and  _29
REMARK   12  A    between atoms: _29  and  _30
REMARK   13  A    between atoms: _29  and  _32
REMARK   14  A    between atoms: _32  and  _33
REMARK   15  A    between atoms: _36  and  _38
REMARK   16  A    between atoms: _38  and  _39
REMARK   17  A    between atoms: _38  and  _41
REMARK   18  A    between atoms: _41  and  _42
REMARK   19  A    between atoms: _45  and  _47
REMARK   20  A    between atoms: _47  and  _48
REMARK   21  A    between atoms: _47  and  _50
REMARK   22  A    between atoms: _50  and  _51
REMARK   23  A    between atoms: _54  and  _56
REMARK   24  A    between atoms: _56  and  _57
REMARK   25  A    between atoms: _59  and  _61
REMARK   26  A    between atoms: _61  and  _62
REMARK   27  A    between atoms: _65  and  _67
REMARK   28  A    between atoms: _67  and  _68
REMARK   29  A    between atoms: _67  and  _70
REMARK   30  A    between atoms: _70  and  _71
REMARK   31  A    between atoms: _74  and  _76
REMARK   32  A    between atoms: _76  and  _77
REMARK   33  A    between atoms: _76  and  _79
REMARK   34  A    between atoms: _79  and  _80
REMARK   35  A    between atoms: _85  and  _87
REMARK   36  A    between atoms: _87  and  _88
REMARK   37  A    between atoms: _87  and  _90
REMARK   38  A    between atoms: _90  and  _91
REMARK   39  A    between atoms: _94  and  _96
REMARK   40  A    between atoms: _96  and  _97
REMARK   41  A    between atoms: _96  and  _99
REMARK   42  A    between atoms: _102  and  _104
REMARK   43  A    between atoms: _104  and  _105
REMARK   44  A    between atoms: _104  and  _107
REMARK   45  A    between atoms: _107  and  _108
REMARK   46  A    between atoms: _108  and  _109
REMARK   47  A    between atoms: _109  and  _110
REMARK   48  A    between atoms: _110  and  _111
REMARK   49  A    between atoms: _115  and  _117
REMARK   50  A    between atoms: _117  and  _118
REMARK   51  A    between atoms: _117  and  _120
REMARK   52  A    between atoms: _120  and  _121
REMARK   53  A    between atoms: _121  and  _122
REMARK   54  A    between atoms: _124  and  _126
REMARK   55  A    between atoms: _126  and  _127
REMARK   56  A    between atoms: _126  and  _129
REMARK   57  A    between atoms: _129  and  _130
REMARK   58  A    between atoms: _133  and  _135
REMARK   59  A    between atoms: _135  and  _136
REMARK   60  A    between atoms: _138  and  _140
REMARK   61  A    between atoms: _140  and  _141
REMARK   62  A    between atoms: _143  and  _145
REMARK   63  A    between atoms: _145  and  _146
REMARK   64  A    between atoms: _145  and  _148
REMARK   65  A    between atoms: _148  and  _149
REMARK   66  A    between atoms: _152  and  _154
REMARK   67  A    between atoms: _154  and  _155
REMARK   68  A    between atoms: _157  and  _159
REMARK   69  A    between atoms: _159  and  _160
REMARK   70  A    between atoms: _162  and  _164
REMARK   71  A    between atoms: _164  and  _165
REMARK   72  A    between atoms: _164  and  _167
REMARK   73  A    between atoms: _167  and  _168
REMARK   74  A    between atoms: _174  and  _176
REMARK   75  A    between atoms: _176  and  _177
REMARK   76  A    between atoms: _176  and  _179
REMARK   77  A    between atoms: _179  and  _180
REMARK   78  A    between atoms: _183  and  _185
REMARK   79  A    between atoms: _185  and  _186
REMARK   80  A    between atoms: _185  and  _188
REMARK   81  A    between atoms: _191  and  _193
REMARK   82  A    between atoms: _193  and  _194
REMARK   83  A    between atoms: _193  and  _196
REMARK   84  A    between atoms: _196  and  _197
REMARK   85  A    between atoms: _200  and  _202
REMARK   86  A    between atoms: _202  and  _203
REMARK   87  A    between atoms: _202  and  _205
REMARK   88  A    between atoms: _205  and  _206
REMARK   89  A    between atoms: _210  and  _211
REMARK   90  A    between atoms: _216  and  _218
REMARK   91  A    between atoms: _218  and  _219
REMARK   92  A    between atoms: _218  and  _221
REMARK   93  A    between atoms: _224  and  _226
REMARK   94  A    between atoms: _226  and  _227
REMARK   95  A    between atoms: _226  and  _229
REMARK   96  A    between atoms: _229  and  _230
REMARK   97  A    between atoms: _235  and  _237
REMARK   98  A    between atoms: _237  and  _238
REMARK   99  A    between atoms: _237  and  _240
REMARK  100  A    between atoms: _240  and  _241
REMARK  101  A    between atoms: _244  and  _246
REMARK  102  A    between atoms: _246  and  _247
REMARK  103  A    between atoms: _246  and  _249
REMARK  104  A    between atoms: _249  and  _250
REMARK  105  A    between atoms: _253  and  _255
REMARK  106  A    between atoms: _255  and  _256
REMARK  107  A    between atoms: _258  and  _260
REMARK  108  A    between atoms: _260  and  _261
REMARK  109  A    between atoms: _260  and  _263
REMARK  110  A    between atoms: _263  and  _264
REMARK  111  A    between atoms: _264  and  _265
REMARK  112  A    between atoms: _265  and  _266
REMARK  113  A    between atoms: _275  and  _277
REMARK  114  A    between atoms: _277  and  _278
REMARK  115  A    between atoms: _277  and  _280
REMARK  116  A    between atoms: _280  and  _281
REMARK  117  A    between atoms: _286  and  _288
REMARK  118  A    between atoms: _288  and  _289
REMARK  119  A    between atoms: _288  and  _291
REMARK  120  A    between atoms: _291  and  _292
REMARK  121  A    between atoms: _292  and  _293
REMARK  122  A    between atoms: _293  and  _294
REMARK  123  A    between atoms: _303  and  _305
REMARK  124  A    between atoms: _305  and  _306
REMARK  125  A    between atoms: _305  and  _308
REMARK  126  A    between atoms: _308  and  _309
REMARK  127  A    between atoms: _312  and  _314
REMARK  128  A    between atoms: _314  and  _315
REMARK  129  A    between atoms: _314  and  _317
REMARK  130  A    between atoms: _317  and  _318
REMARK  131  A    between atoms: _321  and  _323
REMARK  132  A    between atoms: _323  and  _324
REMARK  133  A    between atoms: _323  and  _326
REMARK  134  A    between atoms: _326  and  _327
REMARK  135  A    between atoms: _330  and  _332
REMARK  136  A    between atoms: _332  and  _333
REMARK  137  A    between atoms: _332  and  _335
REMARK  138  A    between atoms: _335  and  _336
REMARK  139  A    between atoms: _339  and  _341
REMARK  140  A    between atoms: _341  and  _342
REMARK  141  A    between atoms: _344  and  _346
REMARK  142  A    between atoms: _346  and  _347
REMARK  143  A    between atoms: _350  and  _352
REMARK  144  A    between atoms: _352  and  _353
REMARK  145  A    between atoms: _352  and  _355
REMARK  146  A    between atoms: _355  and  _356
REMARK  147  A    between atoms: _359  and  _361
REMARK  148  A    between atoms: _361  and  _362
REMARK  149  A    between atoms: _361  and  _364
REMARK  150  A    between atoms: _364  and  _365
REMARK  151  A    between atoms: _370  and  _372
REMARK  152  A    between atoms: _372  and  _373
REMARK  153  A    between atoms: _372  and  _375
REMARK  154  A    between atoms: _375  and  _376
REMARK  155  A    between atoms: _379  and  _381
REMARK  156  A    between atoms: _381  and  _382
REMARK  157  A    between atoms: _381  and  _384
REMARK  158  A    between atoms: _387  and  _389
REMARK  159  A    between atoms: _389  and  _390
REMARK  160  A    between atoms: _389  and  _392
REMARK  161  A    between atoms: _392  and  _393
REMARK  162  A    between atoms: _393  and  _394
REMARK  163  A    between atoms: _394  and  _395
REMARK  164  A    between atoms: _395  and  _396
REMARK  165  A    between atoms: _400  and  _402
REMARK  166  A    between atoms: _402  and  _403
REMARK  167  A    between atoms: _402  and  _405
REMARK  168  A    between atoms: _405  and  _406
REMARK  169  A    between atoms: _406  and  _407
REMARK  170  A    between atoms: _409  and  _411
REMARK  171  A    between atoms: _411  and  _412
REMARK  172  A    between atoms: _411  and  _414
REMARK  173  A    between atoms: _414  and  _415
REMARK  174  A    between atoms: _418  and  _420
REMARK  175  A    between atoms: _420  and  _421
REMARK  176  A    between atoms: _423  and  _425
REMARK  177  A    between atoms: _425  and  _426
REMARK  178  A    between atoms: _428  and  _430
REMARK  179  A    between atoms: _430  and  _431
REMARK  180  A    between atoms: _430  and  _433
REMARK  181  A    between atoms: _433  and  _434
REMARK  182  A    between atoms: _437  and  _439
REMARK  183  A    between atoms: _439  and  _440
REMARK  184  A    between atoms: _442  and  _444
REMARK  185  A    between atoms: _444  and  _445
REMARK  186  A    between atoms: _447  and  _449
REMARK  187  A    between atoms: _449  and  _450
REMARK  188  A    between atoms: _449  and  _452
REMARK  189  A    between atoms: _452  and  _453
REMARK  190  A    between atoms: _459  and  _461
REMARK  191  A    between atoms: _461  and  _462
REMARK  192  A    between atoms: _461  and  _464
REMARK  193  A    between atoms: _464  and  _465
REMARK  194  A    between atoms: _468  and  _470
REMARK  195  A    between atoms: _470  and  _471
REMARK  196  A    between atoms: _470  and  _473
REMARK  197  A    between atoms: _473  and  _474
REMARK  198  A    between atoms: _477  and  _479
REMARK  199  A    between atoms: _479  and  _480
REMARK  200  A    between atoms: _479  and  _482
REMARK  201  A    between atoms: _482  and  _483
REMARK  202  A    between atoms: _487  and  _488
REMARK  203  A    between atoms: _493  and  _495
REMARK  204  A    between atoms: _495  and  _496
REMARK  205  A    between atoms: _495  and  _498
REMARK  206  A    between atoms: _501  and  _503
REMARK  207  A    between atoms: _503  and  _504
REMARK  208  A    between atoms: _503  and  _506
REMARK  209  A    between atoms: _506  and  _507
REMARK  210  A    between atoms: _512  and  _514
REMARK  211  A    between atoms: _514  and  _515
REMARK  212  A    between atoms: _514  and  _517
REMARK  213  A    between atoms: _517  and  _518
REMARK  214  A    between atoms: _521  and  _523
REMARK  215  A    between atoms: _523  and  _524
REMARK  216  A    between atoms: _523  and  _526
REMARK  217  A    between atoms: _526  and  _527
REMARK  218  A    between atoms: _530  and  _532
REMARK  219  A    between atoms: _532  and  _533
REMARK  220  A    between atoms: _535  and  _537
REMARK  221  A    between atoms: _537  and  _538
REMARK  222  A    between atoms: _537  and  _540
REMARK  223  A    between atoms: _540  and  _541
REMARK  224  A    between atoms: _541  and  _542
REMARK  225  A    between atoms: _542  and  _543
REMARK  226  A    between atoms: _552  and  _554
REMARK  227  A    between atoms: _554  and  _555
REMARK  228  A    between atoms: _554  and  _557
REMARK  229  A    between atoms: _557  and  _558
REMARK                            x       y       z     vdW  Elec       q    Type
REMARK                         _______ _______ _______ _____ _____    ______ ____
ROOT
ATOM      1  NE  ARG A   1       6.659  20.871  14.965  0.00  0.00    -0.265 N 
ATOM      2  HE  ARG A   1       6.142  20.217  15.587  0.00  0.00    +0.259 HD
ATOM      3  CZ  ARG A   1       7.810  20.441  14.461  0.00  0.00    +0.342 C 
ATOM      4  NH2 ARG A   1       8.144  19.198  14.831  0.00  0.00    -0.292 N 
ATOM      5 HH21 ARG A   1       7.519  18.658  15.462  0.00  0.00    +0.255 HD
ATOM      6 HH22 ARG A   1       9.029  18.773  14.487  0.00  0.00    +0.255 HD
ATOM      7  NH1 ARG A   1       8.535  21.228  13.657  0.00  0.00    -0.292 N 
ATOM      8 HH11 ARG A   1       8.198  22.184  13.423  0.00  0.00    +0.255 HD
ATOM      9 HH12 ARG A   1       9.435  20.884  13.266  0.00  0.00    +0.255 HD
ENDROOT
BRANCH   1  10
ATOM     10  CD  ARG A   1       6.057  22.166  14.729  0.00  0.00    +0.174 C 
BRANCH  10  11
ATOM     11  CG  ARG A   1       5.050  22.566  15.799  0.00  0.00    +0.045 C 
BRANCH  11  12
ATOM     12  CB  ARG A   1       4.558  23.977  15.498  0.00  0.00    +0.029 C 
BRANCH  12  13
ATOM     13  CA  ARG A   1       3.934  24.711  16.682  0.00  0.00    +0.133 C 
BRANCH  13  14
ATOM     14  N   ARG A   1       2.724  24.024  17.159  0.00  0.00    -0.239 NA
ATOM     15  H   ARG A   1       2.407  23.146  16.701  0.00  0.00    +0.142 HD
ENDBRANCH  13  14
BRANCH  13  16
ATOM     16  C   ARG A   1       3.650  26.141  16.244  0.00  0.00    +0.224 C 
ATOM     17  O   ARG A   1       2.664  26.296  15.518  0.00  0.00    -0.287 OA
ENDBRANCH  13  16
ENDBRANCH  12  13
ENDBRANCH  11  12
ENDBRANCH  10  11
ENDBRANCH   1  10
TORSDOF 6
REMARK  Name = ../refined-set-2016/2qci/2qci_pocket.pdb
REMARK  229 active torsions:
REMARK  status: ('A' for Active; 'I' for Inactive)
REMARK    1  A    between atoms: _1  and  _3
REMARK    2  A    between atoms: _3  and  _4
REMARK    3  A    between atoms: _3  and  _6
REMARK    4  A    between atoms: _6  and  _7
REMARK    5  A    between atoms: _7  and  _8
REMARK    6  A    between atoms: _8  and  _9
REMARK    7  A    between atoms: _18  and  _20
REMARK    8  A    between atoms: _20  and  _21
REMARK    9  A    between atoms: _20  and  _23
REMARK   10  A    between atoms: _23  and  _24
REMARK   11  A    between atoms: _27  and  _29
REMARK   12  A    between atoms: _29  and  _30
REMARK   13  A    between atoms: _29  and  _32
REMARK   14  A    between atoms: _32  and  _33
REMARK   15  A    between atoms: _36  and  _38
REMARK   16  A    between atoms: _38  and  _39
REMARK   17  A    between atoms: _38  and  _41
REMARK   18  A    between atoms: _41  and  _42
REMARK   19  A    between atoms: _45  and  _47
REMARK   20  A    between atoms: _47  and  _48
REMARK   21  A    between atoms: _47  and  _50
REMARK   22  A    between atoms: _50  and  _51
REMARK   23  A    between atoms: _54  and  _56
REMARK   24  A    between atoms: _56  and  _57
REMARK   25  A    between atoms: _59  and  _61
REMARK   26  A    between atoms: _61  and  _62
REMARK   27  A    between atoms: _65  and  _67
REMARK   28  A    between atoms: _67  and  _68
REMARK   29  A    between atoms: _67  and  _70
REMARK   30  A    between atoms: _70  and  _71
REMARK   31  A    between atoms: _74  and  _76
REMARK   32  A    between atoms: _76  and  _77
REMARK   33  A    between atoms: _76  and  _79
REMARK   34  A    between atoms: _79  and  _80
REMARK   35  A    between atoms: _85  and  _87
REMARK   36  A    between atoms: _87  and  _88
REMARK   37  A    between atoms: _87  and  _90
REMARK   38  A    between atoms: _90  and  _91
REMARK   39  A    between atoms: _94  and  _96
REMARK   40  A    between atoms: _96  and  _97
REMARK   41  A    between atoms: _96  and  _99
REMARK   42  A    between atoms: _102  and  _104
REMARK   43  A    between atoms: _104  and  _105
REMARK   44  A    between atoms: _104  and  _107
REMARK   45  A    between atoms: _107  and  _108
REMARK   46  A    between atoms: _108  and  _109
REMARK   47  A    between atoms: _109  and  _110
REMARK   48  A    between atoms: _110  and  _111
REMARK   49  A    between atoms: _115  and  _117
REMARK   50  A    between atoms: _117  and  _118
REMARK   51  A    between atoms: _117  and  _120
REMARK   52  A    between atoms: _120  and  _121
REMARK   53  A    between atoms: _121  and  _122
REMARK   54  A    between atoms: _124  and  _126
REMARK   55  A    between atoms: _126  and  _127
REMARK   56  A    between atoms: _126  and  _129
REMARK   57  A    between atoms: _129  and  _130
REMARK   58  A    between atoms: _133  and  _135
REMARK   59  A    between atoms: _135  and  _136
REMARK   60  A    between atoms: _138  and  _140
REMARK   61  A    between atoms: _140  and  _141
REMARK   62  A    between atoms: _143  and  _145
REMARK   63  A    between atoms: _145  and  _146
REMARK   64  A    between atoms: _145  and  _148
REMARK   65  A    between atoms: _148  and  _149
REMARK   66  A    between atoms: _152  and  _154
REMARK   67  A    between atoms: _154  and  _155
REMARK   68  A    between atoms: _157  and  _159
REMARK   69  A    between atoms: _159  and  _160
REMARK   70  A    between atoms: _162  and  _164
REMARK   71  A    between atoms: _164  and  _165
REMARK   72  A    between atoms: _164  and  _167
REMARK   73  A    between atoms: _167  and  _168
REMARK   74  A    between atoms: _174  and  _176
REMARK   75  A    between atoms: _176  and  _177
REMARK   76  A    between atoms: _176  and  _179
REMARK   77  A    between atoms: _179  and  _180
REMARK   78  A    between atoms: _183  and  _185
REMARK   79  A    between atoms: _185  and  _186
REMARK   80  A    between atoms: _185  and  _188
REMARK   81  A    between atoms: _191  and  _193
REMARK   82  A    between atoms: _193  and  _194
REMARK   83  A    between atoms: _193  and  _196
REMARK   84  A    between atoms: _196  and  _197
REMARK   85  A    between atoms: _200  and  _202
REMARK   86  A    between atoms: _202  and  _203
REMARK   87  A    between atoms: _202  and  _205
REMARK   88  A    between atoms: _205  and  _206
REMARK   89  A    between atoms: _210  and  _211
REMARK   90  A    between atoms: _216  and  _218
REMARK   91  A    between atoms: _218  and  _219
REMARK   92  A    between atoms: _218  and  _221
REMARK   93  A    between atoms: _224  and  _226
REMARK   94  A    between atoms: _226  and  _227
REMARK   95  A    between atoms: _226  and  _229
REMARK   96  A    between atoms: _229  and  _230
REMARK   97  A    between atoms: _235  and  _237
REMARK   98  A    between atoms: _237  and  _238
REMARK   99  A    between atoms: _237  and  _240
REMARK  100  A    between atoms: _240  and  _241
REMARK  101  A    between atoms: _244  and  _246
REMARK  102  A    between atoms: _246  and  _247
REMARK  103  A    between atoms: _246  and  _249
REMARK  104  A    between atoms: _249  and  _250
REMARK  105  A    between atoms: _253  and  _255
REMARK  106  A    between atoms: _255  and  _256
REMARK  107  A    between atoms: _258  and  _260
REMARK  108  A    between atoms: _260  and  _261
REMARK  109  A    between atoms: _260  and  _263
REMARK  110  A    between atoms: _263  and  _264
REMARK  111  A    between atoms: _264  and  _265
REMARK  112  A    between atoms: _265  and  _266
REMARK  113  A    between atoms: _275  and  _277
REMARK  114  A    between atoms: _277  and  _278
REMARK  115  A    between atoms: _277  and  _280
REMARK  116  A    between atoms: _280  and  _281
REMARK  117  A    between atoms: _286  and  _288
REMARK  118  A    between atoms: _288  and  _289
REMARK  119  A    between atoms: _288  and  _291
REMARK  120  A    between atoms: _291  and  _292
REMARK  121  A    between atoms: _292  and  _293
REMARK  122  A    between atoms: _293  and  _294
REMARK  123  A    between atoms: _303  and  _305
REMARK  124  A    between atoms: _305  and  _306
REMARK  125  A    between atoms: _305  and  _308
REMARK  126  A    between atoms: _308  and  _309
REMARK  127  A    between atoms: _312  and  _314
REMARK  128  A    between atoms: _314  and  _315
REMARK  129  A    between atoms: _314  and  _317
REMARK  130  A    between atoms: _317  and  _318
REMARK  131  A    between atoms: _321  and  _323
REMARK  132  A    between atoms: _323  and  _324
REMARK  133  A    between atoms: _323  and  _326
REMARK  134  A    between atoms: _326  and  _327
REMARK  135  A    between atoms: _330  and  _332
REMARK  136  A    between atoms: _332  and  _333
REMARK  137  A    between atoms: _332  and  _335
REMARK  138  A    between atoms: _335  and  _336
REMARK  139  A    between atoms: _339  and  _341
REMARK  140  A    between atoms: _341  and  _342
REMARK  141  A    between atoms: _344  and  _346
REMARK  142  A    between atoms: _346  and  _347
REMARK  143  A    between atoms: _350  and  _352
REMARK  144  A    between atoms: _352  and  _353
REMARK  145  A    between atoms: _352  and  _355
REMARK  146  A    between atoms: _355  and  _356
REMARK  147  A    between atoms: _359  and  _361
REMARK  148  A    between atoms: _361  and  _362
REMARK  149  A    between atoms: _361  and  _364
REMARK  150  A    between atoms: _364  and  _365
REMARK  151  A    between atoms: _370  and  _372
REMARK  152  A    between atoms: _372  and  _373
REMARK  153  A    between atoms: _372  and  _375
REMARK  154  A    between atoms: _375  and  _376
REMARK  155  A    between atoms: _379  and  _381
REMARK  156  A    between atoms: _381  and  _382
REMARK  157  A    between atoms: _381  and  _384
REMARK  158  A    between atoms: _387  and  _389
REMARK  159  A    between atoms: _389  and  _390
REMARK  160  A    between atoms: _389  and  _392
REMARK  161  A    between atoms: _392  and  _393
REMARK  162  A    between atoms: _393  and  _394
REMARK  163  A    between atoms: _394  and  _395
REMARK  164  A    between atoms: _395  and  _396
REMARK  165  A    between atoms: _400  and  _402
REMARK  166  A    between atoms: _402  and  _403
REMARK  167  A    between atoms: _402  and  _405
REMARK  168  A    between atoms: _405  and  _406
REMARK  169  A    between atoms: _406  and  _407
REMARK  170  A    between atoms: _409  and  _411
REMARK  171  A    between atoms: _411  and  _412
REMARK  172  A    between atoms: _411  and  _414
REMARK  173  A    between atoms: _414  and  _415
REMARK  174  A    between atoms: _418  and  _420
REMARK  175  A    between atoms: _420  and  _421
REMARK  176  A    between atoms: _423  and  _425
REMARK  177  A    between atoms: _425  and  _426
REMARK  178  A    between atoms: _428  and  _430
REMARK  179  A    between atoms: _430  and  _431
REMARK  180  A    between atoms: _430  and  _433
REMARK  181  A    between atoms: _433  and  _434
REMARK  182  A    between atoms: _437  and  _439
REMARK  183  A    between atoms: _439  and  _440
REMARK  184  A    between atoms: _442  and  _444
REMARK  185  A    between atoms: _444  and  _445
REMARK  186  A    between atoms: _447  and  _449
REMARK  187  A    between atoms: _449  and  _450
REMARK  188  A    between atoms: _449  and  _452
REMARK  189  A    between atoms: _452  and  _453
REMARK  190  A    between atoms: _459  and  _461
REMARK  191  A    between atoms: _461  and  _462
REMARK  192  A    between atoms: _461  and  _464
REMARK  193  A    between atoms: _464  and  _465
REMARK  194  A    between atoms: _468  and  _470
REMARK  195  A    between atoms: _470  and  _471
REMARK  196  A    between atoms: _470  and  _473
REMARK  197  A    between atoms: _473  and  _474
REMARK  198  A    between atoms: _477  and  _479
REMARK  199  A    between atoms: _479  and  _480
REMARK  200  A    between atoms: _479  and  _482
REMARK  201  A    between atoms: _482  and  _483
REMARK  202  A    between atoms: _487  and  _488
REMARK  203  A    between atoms: _493  and  _495
REMARK  204  A    between atoms: _495  and  _496
REMARK  205  A    between atoms: _495  and  _498
REMARK  206  A    between atoms: _501  and  _503
REMARK  207  A    between atoms: _503  and  _504
REMARK  208  A    between atoms: _503  and  _506
REMARK  209  A    between atoms: _506  and  _507
REMARK  210  A    between atoms: _512  and  _514
REMARK  211  A    between atoms: _514  and  _515
REMARK  212  A    between atoms: _514  and  _517
REMARK  213  A    between atoms: _517  and  _518
REMARK  214  A    between atoms: _521  and  _523
REMARK  215  A    between atoms: _523  and  _524
REMARK  216  A    between atoms: _523  and  _526
REMARK  217  A    between atoms: _526  and  _527
REMARK  218  A    between atoms: _530  and  _532
REMARK  219  A    between atoms: _532  and  _533
REMARK  220  A    between atoms: _535  and  _537
REMARK  221  A    between atoms: _537  and  _538
REMARK  222  A    between atoms: _537  and  _540
REMARK  223  A    between atoms: _540  and  _541
REMARK  224  A    between atoms: _541  and  _542
REMARK  225  A    between atoms: _542  and  _543
REMARK  226  A    between atoms: _552  and  _554
REMARK  227  A    between atoms: _554  and  _555
REMARK  228  A    between atoms: _554  and  _557
REMARK  229  A    between atoms: _557  and  _558
REMARK                            x       y       z     vdW  Elec       q    Type
REMARK                         _______ _______ _______ _____ _____    ______ ____
ROOT
ATOM      1  C   GLY A   5      16.912  28.294  19.779  0.00  0.00    +0.243 C 
ATOM      2  O   GLY A   5      17.979  27.676  19.907  0.00  0.00    -0.273 OA
ATOM      3  N   ALA A   6      16.668  29.024  18.708  0.00  0.00    -0.297 N 
ATOM      4  H   ALA A   6      15.768  29.544  18.673  0.00  0.00    +0.150 HD
ENDROOT
BRANCH   3   5
ATOM      5  CA  ALA A   6      17.561  29.154  17.580  0.00  0.00    +0.149 C 
ATOM      6  CB  ALA A   6      16.784  29.053  16.287  0.00  0.00    +0.031 C 
BRANCH   5   7
ATOM      7  C   ALA A   6      18.270  30.497  17.615  0.00  0.00    +0.241 C 
ATOM      8  N   ASP A   7      19.591  30.531  17.663  0.00  0.00    -0.297 N 
ATOM      9  H   ASP A   7      20.118  29.638  17.741  0.00  0.00    +0.150 HD
ATOM     10  O   ALA A   6      17.630  31.550  17.593  0.00  0.00    -0.273 OA
BRANCH   8  11
ATOM     11  CA  ASP A   7      20.327  31.785  17.609  0.00  0.00    +0.160 C 
BRANCH  11  12
ATOM     12  C   ASP A   7      20.139  32.453  16.267  0.00  0.00    +0.241 C 
ATOM     13  O   ASP A   7      20.065  33.687  16.157  0.00  0.00    -0.273 OA
ATOM     14  N   ASN A   8      20.086  31.642  15.208  0.00  0.00    -0.297 N 
ATOM     15  H   ASN A   8      19.999  30.622  15.392  0.00  0.00    +0.150 HD
BRANCH  14  16
ATOM     16  CA  ASN A   8      20.139  32.060  13.843  0.00  0.00    +0.158 C 
BRANCH  16  17
ATOM     17  C   ASN A   8      18.888  31.573  13.092  0.00  0.00    +0.241 C 
ATOM     18  O   ASN A   8      18.238  30.611  13.470  0.00  0.00    -0.273 OA
ATOM     19  N   THR A   9      18.580  32.274  12.029  0.00  0.00    -0.295 N 
ATOM     20  H   THR A   9      19.135  33.133  11.842  0.00  0.00    +0.150 HD
BRANCH  19  21
ATOM     21  CA  THR A   9      17.523  31.942  11.094  0.00  0.00    +0.176 C 
BRANCH  21  22
ATOM     22  C   THR A   9      18.048  30.980  10.022  0.00  0.00    +0.243 C 
ATOM     23  N   VAL A  10      17.373  29.851   9.795  0.00  0.00    -0.298 N 
ATOM     24  H   VAL A  10      16.467  29.716  10.287  0.00  0.00    +0.150 HD
ATOM     25  O   THR A   9      19.084  31.257   9.412  0.00  0.00    -0.273 OA
BRANCH  23  26
ATOM     26  CA  VAL A  10      17.823  28.809   8.911  0.00  0.00    +0.137 C 
BRANCH  26  27
ATOM     27  CB  VAL A  10      18.340  27.559   9.666  0.00  0.00    +0.026 C 
ATOM     28  CG2 VAL A  10      19.147  27.939  10.888  0.00  0.00    +0.002 C 
ATOM     29  CG1 VAL A  10      19.115  26.656   8.662  0.00  0.00    +0.002 C 
ENDBRANCH  26  27
BRANCH  26  30
ATOM     30  C   VAL A  10      16.658  28.406   8.011  0.00  0.00    +0.227 C 
ATOM     31  O   VAL A  10      15.600  28.031   8.520  0.00  0.00    -0.286 OA
ENDBRANCH  26  30
ENDBRANCH  23  26
ENDBRANCH  21  22
BRANCH  21  32
ATOM     32  CB  THR A   9      16.987  33.239  10.488  0.00  0.00    +0.137 C 
ATOM     33  CG2 THR A   9      15.932  32.996   9.413  0.00  0.00    +0.034 C 
BRANCH  32  34
ATOM     34  OG1 THR A   9      16.352  33.988  11.544  0.00  0.00    -0.382 OA
ATOM     35  HG1 THR A   9      17.016  34.187  12.251  0.00  0.00    +0.210 HD
ENDBRANCH  32  34
ENDBRANCH  21  32
ENDBRANCH  19  21
ENDBRANCH  16  17
BRANCH  16  36
ATOM     36  CB  ASN A   8      21.382  31.525  13.131  0.00  0.00    +0.114 C 
BRANCH  36  37
ATOM     37  CG  ASN A   8      22.655  32.043  13.757  0.00  0.00    +0.222 C 
ATOM     38  OD1 ASN A   8      22.762  33.234  14.043  0.00  0.00    -0.275 OA
ATOM     39  ND2 ASN A   8      23.619  31.170  13.977  0.00  0.00    -0.329 N 
ATOM     40 HD21 ASN A   8      24.513  31.480  14.408  0.00  0.00    +0.145 HD
ATOM     41 HD22 ASN A   8      23.485  30.171  13.719  0.00  0.00    +0.145 HD
ENDBRANCH  36  37
ENDBRANCH  16  36
ENDBRANCH  14  16
ENDBRANCH  11  12
BRANCH  11  42
ATOM     42  CB  ASP A   7      21.833  31.557  17.852  0.00  0.00    +0.143 C 
BRANCH  42  43
ATOM     43  CG  ASP A   7      22.274  30.953  19.148  0.00  0.00    +0.367 C 
ATOM     44  OD2 ASP A   7      21.510  31.046  20.143  0.00  0.00    -0.246 OA
ATOM     45  OD1 ASP A   7      23.408  30.394  19.186  0.00  0.00    -0.246 OA
ENDBRANCH  42  43
ENDBRANCH  11  42
ENDBRANCH   8  11
ENDBRANCH   5   7
ENDBRANCH   3   5
BRANCH   1  46
ATOM     46  CA  GLY A   5      15.918  28.231  20.885  0.00  0.00    +0.176 C 
BRANCH  46  49
ATOM     47  C   THR A   4      14.656  30.329  20.938  0.00  0.00    +0.243 C 
ATOM     48  O   THR A   4      15.577  30.930  21.484  0.00  0.00    -0.273 OA
ATOM     49  N   GLY A   5      14.728  29.062  20.636  0.00  0.00    -0.295 N 
ATOM     50  H   GLY A   5      13.899  28.614  20.195  0.00  0.00    +0.150 HD
BRANCH  47  51
ATOM     51  CA  THR A   4      13.390  31.107  20.588  0.00  0.00    +0.176 C 
BRANCH  51  53
ATOM     52  C   ASP A   3      13.020  30.263  18.326  0.00  0.00    +0.241 C 
ATOM     53  N   THR A   4      12.575  30.400  19.593  0.00  0.00    -0.295 N 
ATOM     54  H   THR A   4      11.653  30.004  19.865  0.00  0.00    +0.150 HD
ATOM     55  O   ASP A   3      14.113  30.662  17.958  0.00  0.00    -0.273 OA
BRANCH  52  56
ATOM     56  CA  ASP A   3      12.053  29.519  17.408  0.00  0.00    +0.160 C 
BRANCH  56  59
ATOM     57  C   LEU A   2       9.920  30.313  16.538  0.00  0.00    +0.241 C 
ATOM     58  O   LEU A   2       9.288  29.654  17.362  0.00  0.00    -0.273 OA
ATOM     59  N   ASP A   3      11.245  30.404  16.593  0.00  0.00    -0.297 N 
ATOM     60  H   ASP A   3      11.720  31.138  16.030  0.00  0.00    +0.150 HD
BRANCH  57  61
ATOM     61  CA  LEU A   2       9.182  31.024  15.430  0.00  0.00    +0.149 C 
BRANCH  61  63
ATOM     62  C   LEU A   1       9.351  29.336  13.666  0.00  0.00    +0.238 C 
ATOM     63  N   LEU A   2       8.629  30.011  14.536  0.00  0.00    -0.297 N 
ATOM     64  H   LEU A   2       7.610  29.812  14.589  0.00  0.00    +0.150 HD
ATOM     65  O   LEU A   1      10.526  29.609  13.447  0.00  0.00    -0.274 OA
BRANCH  62  66
ATOM     66  CA  LEU A   1       8.730  28.175  12.879  0.00  0.00    +0.145 C 
BRANCH  66  67
ATOM     67  N   LEU A   1       8.888  28.376  11.468  0.00  0.00    -0.238 NA
ATOM     68  H   LEU A   1       9.752  27.991  11.036  0.00  0.00    +0.142 HD
ENDBRANCH  66  67
BRANCH  66  69
ATOM     69  CB  LEU A   1       9.391  26.845  13.226  0.00  0.00    +0.026 C 
BRANCH  69  70
ATOM     70  CG  LEU A   1       9.287  26.306  14.598  0.00  0.00    +0.002 C 
ATOM     71  CD2 LEU A   1       7.885  25.891  14.913  0.00  0.00    +0.000 C 
ATOM     72  CD1 LEU A   1      10.213  25.084  14.686  0.00  0.00    +0.000 C 
ENDBRANCH  69  70
ENDBRANCH  66  69
ENDBRANCH  62  66
ENDBRANCH  61  63
BRANCH  61  73
ATOM     73  CB  LEU A   2       8.083  31.921  15.996  0.00  0.00    +0.029 C 
BRANCH  73  74
ATOM     74  CG  LEU A   2       7.303  32.739  14.983  0.00  0.00    +0.002 C 
ATOM     75  CD2 LEU A   2       6.289  33.611  15.744  0.00  0.00    +0.000 C 
ATOM     76  CD1 LEU A   2       8.192  33.591  14.107  0.00  0.00    +0.000 C 
ENDBRANCH  73  74
ENDBRANCH  61  73
ENDBRANCH  57  61
ENDBRANCH  56  59
BRANCH  56  77
ATOM     77  CB  ASP A   3      12.834  28.626  16.460  0.00  0.00    +0.143 C 
BRANCH  77  78
ATOM     78  CG  ASP A   3      13.490  27.525  17.194  0.00  0.00    +0.367 C 
ATOM     79  OD2 ASP A   3      13.434  27.533  18.464  0.00  0.00    -0.246 OA
ATOM     80  OD1 ASP A   3      14.058  26.629  16.524  0.00  0.00    -0.246 OA
ENDBRANCH  77  78
ENDBRANCH  56  77
ENDBRANCH  52  56
ENDBRANCH  51  53
BRANCH  51  81
ATOM     81  CB  THR A   4      12.594  31.393  21.878  0.00  0.00    +0.137 C 
ATOM     82  CG2 THR A   4      11.387  32.267  21.590  0.00  0.00    +0.034 C 
BRANCH  81  83
ATOM     83  OG1 THR A   4      12.118  30.133  22.429  0.00  0.00    -0.382 OA
ATOM     84  HG1 THR A   4      12.892  29.551  22.635  0.00  0.00    +0.210 HD
ENDBRANCH  81  83
ENDBRANCH  51  81
ENDBRANCH  47  51
ENDBRANCH  46  49
ENDBRANCH   1  46
TORSDOF 35
REMARK  Name = ../refined-set-2016/2qci/2qci_pocket.pdb
REMARK  229 active torsions:
REMARK  status: ('A' for Active; 'I' for Inactive)
REMARK    1  A    between atoms: _1  and  _3
REMARK    2  A    between atoms: _3  and  _4
REMARK    3  A    between atoms: _3  and  _6
REMARK    4  A    between atoms: _6  and  _7
REMARK    5  A    between atoms: _7  and  _8
REMARK    6  A    between atoms: _8  and  _9
REMARK    7  A    between atoms: _18  and  _20
REMARK    8  A    between atoms: _20  and  _21
REMARK    9  A    between atoms: _20  and  _23
REMARK   10  A    between atoms: _23  and  _24
REMARK   11  A    between atoms: _27  and  _29
REMARK   12  A    between atoms: _29  and  _30
REMARK   13  A    between atoms: _29  and  _32
REMARK   14  A    between atoms: _32  and  _33
REMARK   15  A    between atoms: _36  and  _38
REMARK   16  A    between atoms: _38  and  _39
REMARK   17  A    between atoms: _38  and  _41
REMARK   18  A    between atoms: _41  and  _42
REMARK   19  A    between atoms: _45  and  _47
REMARK   20  A    between atoms: _47  and  _48
REMARK   21  A    between atoms: _47  and  _50
REMARK   22  A    between atoms: _50  and  _51
REMARK   23  A    between atoms: _54  and  _56
REMARK   24  A    between atoms: _56  and  _57
REMARK   25  A    between atoms: _59  and  _61
REMARK   26  A    between atoms: _61  and  _62
REMARK   27  A    between atoms: _65  and  _67
REMARK   28  A    between atoms: _67  and  _68
REMARK   29  A    between atoms: _67  and  _70
REMARK   30  A    between atoms: _70  and  _71
REMARK   31  A    between atoms: _74  and  _76
REMARK   32  A    between atoms: _76  and  _77
REMARK   33  A    between atoms: _76  and  _79
REMARK   34  A    between atoms: _79  and  _80
REMARK   35  A    between atoms: _85  and  _87
REMARK   36  A    between atoms: _87  and  _88
REMARK   37  A    between atoms: _87  and  _90
REMARK   38  A    between atoms: _90  and  _91
REMARK   39  A    between atoms: _94  and  _96
REMARK   40  A    between atoms: _96  and  _97
REMARK   41  A    between atoms: _96  and  _99
REMARK   42  A    between atoms: _102  and  _104
REMARK   43  A    between atoms: _104  and  _105
REMARK   44  A    between atoms: _104  and  _107
REMARK   45  A    between atoms: _107  and  _108
REMARK   46  A    between atoms: _108  and  _109
REMARK   47  A    between atoms: _109  and  _110
REMARK   48  A    between atoms: _110  and  _111
REMARK   49  A    between atoms: _115  and  _117
REMARK   50  A    between atoms: _117  and  _118
REMARK   51  A    between atoms: _117  and  _120
REMARK   52  A    between atoms: _120  and  _121
REMARK   53  A    between atoms: _121  and  _122
REMARK   54  A    between atoms: _124  and  _126
REMARK   55  A    between atoms: _126  and  _127
REMARK   56  A    between atoms: _126  and  _129
REMARK   57  A    between atoms: _129  and  _130
REMARK   58  A    between atoms: _133  and  _135
REMARK   59  A    between atoms: _135  and  _136
REMARK   60  A    between atoms: _138  and  _140
REMARK   61  A    between atoms: _140  and  _141
REMARK   62  A    between atoms: _143  and  _145
REMARK   63  A    between atoms: _145  and  _146
REMARK   64  A    between atoms: _145  and  _148
REMARK   65  A    between atoms: _148  and  _149
REMARK   66  A    between atoms: _152  and  _154
REMARK   67  A    between atoms: _154  and  _155
REMARK   68  A    between atoms: _157  and  _159
REMARK   69  A    between atoms: _159  and  _160
REMARK   70  A    between atoms: _162  and  _164
REMARK   71  A    between atoms: _164  and  _165
REMARK   72  A    between atoms: _164  and  _167
REMARK   73  A    between atoms: _167  and  _168
REMARK   74  A    between atoms: _174  and  _176
REMARK   75  A    between atoms: _176  and  _177
REMARK   76  A    between atoms: _176  and  _179
REMARK   77  A    between atoms: _179  and  _180
REMARK   78  A    between atoms: _183  and  _185
REMARK   79  A    between atoms: _185  and  _186
REMARK   80  A    between atoms: _185  and  _188
REMARK   81  A    between atoms: _191  and  _193
REMARK   82  A    between atoms: _193  and  _194
REMARK   83  A    between atoms: _193  and  _196
REMARK   84  A    between atoms: _196  and  _197
REMARK   85  A    between atoms: _200  and  _202
REMARK   86  A    between atoms: _202  and  _203
REMARK   87  A    between atoms: _202  and  _205
REMARK   88  A    between atoms: _205  and  _206
REMARK   89  A    between atoms: _210  and  _211
REMARK   90  A    between atoms: _216  and  _218
REMARK   91  A    between atoms: _218  and  _219
REMARK   92  A    between atoms: _218  and  _221
REMARK   93  A    between atoms: _224  and  _226
REMARK   94  A    between atoms: _226  and  _227
REMARK   95  A    between atoms: _226  and  _229
REMARK   96  A    between atoms: _229  and  _230
REMARK   97  A    between atoms: _235  and  _237
REMARK   98  A    between atoms: _237  and  _238
REMARK   99  A    between atoms: _237  and  _240
REMARK  100  A    between atoms: _240  and  _241
REMARK  101  A    between atoms: _244  and  _246
REMARK  102  A    between atoms: _246  and  _247
REMARK  103  A    between atoms: _246  and  _249
REMARK  104  A    between atoms: _249  and  _250
REMARK  105  A    between atoms: _253  and  _255
REMARK  106  A    between atoms: _255  and  _256
REMARK  107  A    between atoms: _258  and  _260
REMARK  108  A    between atoms: _260  and  _261
REMARK  109  A    between atoms: _260  and  _263
REMARK  110  A    between atoms: _263  and  _264
REMARK  111  A    between atoms: _264  and  _265
REMARK  112  A    between atoms: _265  and  _266
REMARK  113  A    between atoms: _275  and  _277
REMARK  114  A    between atoms: _277  and  _278
REMARK  115  A    between atoms: _277  and  _280
REMARK  116  A    between atoms: _280  and  _281
REMARK  117  A    between atoms: _286  and  _288
REMARK  118  A    between atoms: _288  and  _289
REMARK  119  A    between atoms: _288  and  _291
REMARK  120  A    between atoms: _291  and  _292
REMARK  121  A    between atoms: _292  and  _293
REMARK  122  A    between atoms: _293  and  _294
REMARK  123  A    between atoms: _303  and  _305
REMARK  124  A    between atoms: _305  and  _306
REMARK  125  A    between atoms: _305  and  _308
REMARK  126  A    between atoms: _308  and  _309
REMARK  127  A    between atoms: _312  and  _314
REMARK  128  A    between atoms: _314  and  _315
REMARK  129  A    between atoms: _314  and  _317
REMARK  130  A    between atoms: _317  and  _318
REMARK  131  A    between atoms: _321  and  _323
REMARK  132  A    between atoms: _323  and  _324
REMARK  133  A    between atoms: _323  and  _326
REMARK  134  A    between atoms: _326  and  _327
REMARK  135  A    between atoms: _330  and  _332
REMARK  136  A    between atoms: _332  and  _333
REMARK  137  A    between atoms: _332  and  _335
REMARK  138  A    between atoms: _335  and  _336
REMARK  139  A    between atoms: _339  and  _341
REMARK  140  A    between atoms: _341  and  _342
REMARK  141  A    between atoms: _344  and  _346
REMARK  142  A    between atoms: _346  and  _347
REMARK  143  A    between atoms: _350  and  _352
REMARK  144  A    between atoms: _352  and  _353
REMARK  145  A    between atoms: _352  and  _355
REMARK  146  A    between atoms: _355  and  _356
REMARK  147  A    between atoms: _359  and  _361
REMARK  148  A    between atoms: _361  and  _362
REMARK  149  A    between atoms: _361  and  _364
REMARK  150  A    between atoms: _364  and  _365
REMARK  151  A    between atoms: _370  and  _372
REMARK  152  A    between atoms: _372  and  _373
REMARK  153  A    between atoms: _372  and  _375
REMARK  154  A    between atoms: _375  and  _376
REMARK  155  A    between atoms: _379  and  _381
REMARK  156  A    between atoms: _381  and  _382
REMARK  157  A    between atoms: _381  and  _384
REMARK  158  A    between atoms: _387  and  _389
REMARK  159  A    between atoms: _389  and  _390
REMARK  160  A    between atoms: _389  and  _392
REMARK  161  A    between atoms: _392  and  _393
REMARK  162  A    between atoms: _393  and  _394
REMARK  163  A    between atoms: _394  and  _395
REMARK  164  A    between atoms: _395  and  _396
REMARK  165  A    between atoms: _400  and  _402
REMARK  166  A    between atoms: _402  and  _403
REMARK  167  A    between atoms: _402  and  _405
REMARK  168  A    between atoms: _405  and  _406
REMARK  169  A    between atoms: _406  and  _407
REMARK  170  A    between atoms: _409  and  _411
REMARK  171  A    between atoms: _411  and  _412
REMARK  172  A    between atoms: _411  and  _414
REMARK  173  A    between atoms: _414  and  _415
REMARK  174  A    between atoms: _418  and  _420
REMARK  175  A    between atoms: _420  and  _421
REMARK  176  A    between atoms: _423  and  _425
REMARK  177  A    between atoms: _425  and  _426
REMARK  178  A    between atoms: _428  and  _430
REMARK  179  A    between atoms: _430  and  _431
REMARK  180  A    between atoms: _430  and  _433
REMARK  181  A    between atoms: _433  and  _434
REMARK  182  A    between atoms: _437  and  _439
REMARK  183  A    between atoms: _439  and  _440
REMARK  184  A    between atoms: _442  and  _444
REMARK  185  A    between atoms: _444  and  _445
REMARK  186  A    between atoms: _447  and  _449
REMARK  187  A    between atoms: _449  and  _450
REMARK  188  A    between atoms: _449  and  _452
REMARK  189  A    between atoms: _452  and  _453
REMARK  190  A    between atoms: _459  and  _461
REMARK  191  A    between atoms: _461  and  _462
REMARK  192  A    between atoms: _461  and  _464
REMARK  193  A    between atoms: _464  and  _465
REMARK  194  A    between atoms: _468  and  _470
REMARK  195  A    between atoms: _470  and  _471
REMARK  196  A    between atoms: _470  and  _473
REMARK  197  A    between atoms: _473  and  _474
REMARK  198  A    between atoms: _477  and  _479
REMARK  199  A    between atoms: _479  and  _480
REMARK  200  A    between atoms: _479  and  _482
REMARK  201  A    between atoms: _482  and  _483
REMARK  202  A    between atoms: _487  and  _488
REMARK  203  A    between atoms: _493  and  _495
REMARK  204  A    between atoms: _495  and  _496
REMARK  205  A    between atoms: _495  and  _498
REMARK  206  A    between atoms: _501  and  _503
REMARK  207  A    between atoms: _503  and  _504
REMARK  208  A    between atoms: _503  and  _506
REMARK  209  A    between atoms: _506  and  _507
REMARK  210  A    between atoms: _512  and  _514
REMARK  211  A    between atoms: _514  and  _515
REMARK  212  A    between atoms: _514  and  _517
REMARK  213  A    between atoms: _517  and  _518
REMARK  214  A    between atoms: _521  and  _523
REMARK  215  A    between atoms: _523  and  _524
REMARK  216  A    between atoms: _523  and  _526
REMARK  217  A    between atoms: _526  and  _527
REMARK  218  A    between atoms: _530  and  _532
REMARK  219  A    between atoms: _532  and  _533
REMARK  220  A    between atoms: _535  and  _537
REMARK  221  A    between atoms: _537  and  _538
REMARK  222  A    between atoms: _537  and  _540
REMARK  223  A    between atoms: _540  and  _541
REMARK  224  A    between atoms: _541  and  _542
REMARK  225  A    between atoms: _542  and  _543
REMARK  226  A    between atoms: _552  and  _554
REMARK  227  A    between atoms: _554  and  _555
REMARK  228  A    between atoms: _554  and  _557
REMARK  229  A    between atoms: _557  and  _558
REMARK                            x       y       z     vdW  Elec       q    Type
REMARK                         _______ _______ _______ _____ _____    ______ ____
ROOT
ATOM      1  C   GLY A   5      21.657  19.590  17.424  0.00  0.00    +0.243 C 
ATOM      2  N   ILE A   6      20.466  19.148  17.778  0.00  0.00    -0.297 N 
ATOM      3  H   ILE A   6      19.668  19.811  17.849  0.00  0.00    +0.150 HD
ATOM      4  O   GLY A   5      22.711  19.015  17.455  0.00  0.00    -0.273 OA
ENDROOT
BRANCH   1   5
ATOM      5  CA  GLY A   5      21.769  21.020  16.944  0.00  0.00    +0.176 C 
BRANCH   5   8
ATOM      6  C   GLY A   4      23.612  22.278  16.069  0.00  0.00    +0.243 C 
ATOM      7  O   GLY A   4      23.238  23.304  16.639  0.00  0.00    -0.273 OA
ATOM      8  N   GLY A   5      23.008  21.125  16.212  0.00  0.00    -0.295 N 
ATOM      9  H   GLY A   5      23.428  20.272  15.791  0.00  0.00    +0.150 HD
BRANCH   6  10
ATOM     10  CA  GLY A   4      24.799  22.288  15.165  0.00  0.00    +0.176 C 
BRANCH  10  12
ATOM     11  C   ILE A   3      25.166  23.612  13.152  0.00  0.00    +0.241 C 
ATOM     12  N   GLY A   4      25.002  23.521  14.458  0.00  0.00    -0.295 N 
ATOM     13  H   GLY A   4      25.021  24.401  15.012  0.00  0.00    +0.150 HD
ATOM     14  O   ILE A   3      24.983  22.678  12.415  0.00  0.00    -0.273 OA
BRANCH  11  15
ATOM     15  CA  ILE A   3      25.625  24.965  12.603  0.00  0.00    +0.149 C 
BRANCH  15  18
ATOM     16  C   MET A   2      27.648  25.266  11.303  0.00  0.00    +0.241 C 
ATOM     17  O   MET A   2      28.123  26.069  12.116  0.00  0.00    -0.273 OA
ATOM     18  N   ILE A   3      26.457  24.707  11.412  0.00  0.00    -0.297 N 
ATOM     19  H   ILE A   3      26.105  24.084  10.657  0.00  0.00    +0.150 HD
BRANCH  16  20
ATOM     20  CA  MET A   2      28.474  24.898  10.078  0.00  0.00    +0.149 C 
BRANCH  20  22
ATOM     21  C   LYS A   1      28.689  26.559   8.290  0.00  0.00    +0.238 C 
ATOM     22  N   MET A   2      29.034  26.094   9.472  0.00  0.00    -0.297 N 
ATOM     23  H   MET A   2      29.755  26.617  10.008  0.00  0.00    +0.150 HD
ATOM     24  O   LYS A   1      28.015  25.889   7.515  0.00  0.00    -0.274 OA
BRANCH  21  25
ATOM     25  CA  LYS A   1      29.159  27.944   7.906  0.00  0.00    +0.145 C 
BRANCH  25  26
ATOM     26  N   LYS A   1      29.257  28.021   6.464  0.00  0.00    -0.238 NA
ATOM     27  H   LYS A   1      28.597  27.440   5.909  0.00  0.00    +0.142 HD
ENDBRANCH  25  26
BRANCH  25  28
ATOM     28  CB  LYS A   1      28.188  29.012   8.432  0.00  0.00    +0.026 C 
BRANCH  28  29
ATOM     29  CG  LYS A   1      28.078  29.261   9.902  0.00  0.00    -0.000 C 
BRANCH  29  30
ATOM     30  CD  LYS A   1      27.058  30.337  10.233  0.00  0.00    -0.024 C 
BRANCH  30  31
ATOM     31  CE  LYS A   1      26.824  30.593  11.702  0.00  0.00    -0.086 C 
BRANCH  31  32
ATOM     32  NZ  LYS A   1      27.993  31.238  12.319  0.00  0.00    +0.380 N 
ATOM     33  HZ1 LYS A   1      27.804  31.402  13.328  0.00  0.00    -0.089 HD
ATOM     34  HZ2 LYS A   1      28.823  30.620  12.216  0.00  0.00    -0.089 HD
ATOM     35  HZ3 LYS A   1      28.175  32.147  11.847  0.00  0.00    -0.089 HD
ENDBRANCH  31  32
ENDBRANCH  30  31
ENDBRANCH  29  30
ENDBRANCH  28  29
ENDBRANCH  25  28
ENDBRANCH  21  25
ENDBRANCH  20  22
BRANCH  20  36
ATOM     36  CB  MET A   2      29.577  23.950  10.541  0.00  0.00    +0.041 C 
BRANCH  36  37
ATOM     37  CG  MET A   2      30.395  23.281   9.445  0.00  0.00    +0.060 C 
BRANCH  37  38
ATOM     38  SD  MET A   2      29.434  21.889   8.791  0.00  0.00    -0.139 S 
ATOM     39  CE  MET A   2      30.215  20.576   9.779  0.00  0.00    +0.069 C 
ENDBRANCH  37  38
ENDBRANCH  36  37
ENDBRANCH  20  36
ENDBRANCH  16  20
ENDBRANCH  15  18
BRANCH  15  40
ATOM     40  CB  ILE A   3      24.418  25.878  12.349  0.00  0.00    +0.027 C 
ATOM     41  CG2 ILE A   3      24.877  27.278  12.028  0.00  0.00    +0.002 C 
BRANCH  40  42
ATOM     42  CG1 ILE A   3      23.485  25.308  11.268  0.00  0.00    +0.002 C 
ATOM     43  CD1 ILE A   3      22.188  26.079  11.202  0.00  0.00    +0.000 C 
ENDBRANCH  40  42
ENDBRANCH  15  40
ENDBRANCH  11  15
ENDBRANCH  10  12
ENDBRANCH   6  10
ENDBRANCH   5   8
ENDBRANCH   1   5
BRANCH   2  44
ATOM     44  CA  ILE A   6      20.260  17.712  18.075  0.00  0.00    +0.149 C 
BRANCH  44  45
ATOM     45  C   ILE A   6      20.510  16.968  16.798  0.00  0.00    +0.241 C 
ATOM     46  N   GLY A   7      21.236  15.835  16.863  0.00  0.00    -0.295 N 
ATOM     47  H   GLY A   7      21.570  15.466  17.776  0.00  0.00    +0.150 HD
ATOM     48  O   ILE A   6      20.061  17.360  15.732  0.00  0.00    -0.273 OA
BRANCH  46  49
ATOM     49  CA  GLY A   7      21.537  15.148  15.633  0.00  0.00    +0.176 C 
BRANCH  49  50
ATOM     50  C   GLY A   7      22.911  15.601  15.153  0.00  0.00    +0.243 C 
ATOM     51  N   GLY A   8      23.527  16.699  15.538  0.00  0.00    -0.295 N 
ATOM     52  H   GLY A   8      23.086  17.307  16.257  0.00  0.00    +0.150 HD
ATOM     53  O   GLY A   7      23.372  14.809  14.359  0.00  0.00    -0.273 OA
BRANCH  51  54
ATOM     54  CA  GLY A   8      24.823  17.078  14.971  0.00  0.00    +0.176 C 
BRANCH  54  55
ATOM     55  C   GLY A   8      24.731  18.343  14.105  0.00  0.00    +0.243 C 
ATOM     56  O   GLY A   8      23.822  19.144  14.292  0.00  0.00    -0.273 OA
ATOM     57  N   PHE A   9      25.701  18.458  13.191  0.00  0.00    -0.297 N 
ATOM     58  H   PHE A   9      26.356  17.664  13.040  0.00  0.00    +0.150 HD
BRANCH  57  59
ATOM     59  CA  PHE A   9      25.859  19.675  12.401  0.00  0.00    +0.153 C 
BRANCH  59  60
ATOM     60  C   PHE A   9      25.458  19.521  10.952  0.00  0.00    +0.241 C 
ATOM     61  O   PHE A   9      25.511  18.426  10.383  0.00  0.00    -0.273 OA
ATOM     62  N   ILE A  10      25.071  20.641  10.369  0.00  0.00    -0.298 N 
ATOM     63  H   ILE A  10      24.907  21.478  10.964  0.00  0.00    +0.150 HD
BRANCH  62  64
ATOM     64  CA  ILE A  10      24.864  20.760   8.946  0.00  0.00    +0.137 C 
BRANCH  64  65
ATOM     65  CB  ILE A  10      23.393  20.949   8.545  0.00  0.00    +0.026 C 
ATOM     66  CG2 ILE A  10      22.579  19.720   8.955  0.00  0.00    +0.002 C 
BRANCH  65  67
ATOM     67  CG1 ILE A  10      22.754  22.240   9.047  0.00  0.00    +0.002 C 
ATOM     68  CD1 ILE A  10      21.352  22.483   8.471  0.00  0.00    +0.000 C 
ENDBRANCH  65  67
ENDBRANCH  64  65
BRANCH  64  69
ATOM     69  C   ILE A  10      25.682  21.946   8.407  0.00  0.00    +0.227 C 
ATOM     70  O   ILE A  10      25.933  22.913   9.099  0.00  0.00    -0.286 OA
ENDBRANCH  64  69
ENDBRANCH  62  64
ENDBRANCH  59  60
BRANCH  59  71
ATOM     71  CB  PHE A   9      27.315  20.124  12.421  0.00  0.00    +0.055 C 
BRANCH  71  72
ATOM     72  CG  PHE A   9      27.778  20.689  13.757  0.00  0.00    -0.020 A 
ATOM     73  CD2 PHE A   9      27.964  19.889  14.869  0.00  0.00    -0.004 A 
ATOM     74  CE2 PHE A   9      28.381  20.484  16.041  0.00  0.00    -0.000 A 
ATOM     75  CZ  PHE A   9      28.605  21.825  16.141  0.00  0.00    -0.000 A 
ATOM     76  CE1 PHE A   9      28.431  22.639  15.047  0.00  0.00    -0.000 A 
ATOM     77  CD1 PHE A   9      28.029  22.054  13.870  0.00  0.00    -0.004 A 
ENDBRANCH  71  72
ENDBRANCH  59  71
ENDBRANCH  57  59
ENDBRANCH  54  55
ENDBRANCH  51  54
ENDBRANCH  49  50
ENDBRANCH  46  49
ENDBRANCH  44  45
BRANCH  44  78
ATOM     78  CB  ILE A   6      18.872  17.523  18.705  0.00  0.00    +0.027 C 
ATOM     79  CG2 ILE A   6      18.338  16.102  18.548  0.00  0.00    +0.002 C 
BRANCH  78  80
ATOM     80  CG1 ILE A   6      18.745  17.858  20.214  0.00  0.00    +0.002 C 
ATOM     81  CD1 ILE A   6      17.369  17.939  20.791  0.00  0.00    +0.000 C 
ENDBRANCH  78  80
ENDBRANCH  44  78
ENDBRANCH   2  44
TORSDOF 36
REMARK  Name = ../refined-set-2016/2qci/2qci_pocket.pdb
REMARK  229 active torsions:
REMARK  status: ('A' for Active; 'I' for Inactive)
REMARK    1  A    between atoms: _1  and  _3
REMARK    2  A    between atoms: _3  and  _4
REMARK    3  A    between atoms: _3  and  _6
REMARK    4  A    between atoms: _6  and  _7
REMARK    5  A    between atoms: _7  and  _8
REMARK    6  A    between atoms: _8  and  _9
REMARK    7  A    between atoms: _18  and  _20
REMARK    8  A    between atoms: _20  and  _21
REMARK    9  A    between atoms: _20  and  _23
REMARK   10  A    between atoms: _23  and  _24
REMARK   11  A    between atoms: _27  and  _29
REMARK   12  A    between atoms: _29  and  _30
REMARK   13  A    between atoms: _29  and  _32
REMARK   14  A    between atoms: _32  and  _33
REMARK   15  A    between atoms: _36  and  _38
REMARK   16  A    between atoms: _38  and  _39
REMARK   17  A    between atoms: _38  and  _41
REMARK   18  A    between atoms: _41  and  _42
REMARK   19  A    between atoms: _45  and  _47
REMARK   20  A    between atoms: _47  and  _48
REMARK   21  A    between atoms: _47  and  _50
REMARK   22  A    between atoms: _50  and  _51
REMARK   23  A    between atoms: _54  and  _56
REMARK   24  A    between atoms: _56  and  _57
REMARK   25  A    between atoms: _59  and  _61
REMARK   26  A    between atoms: _61  and  _62
REMARK   27  A    between atoms: _65  and  _67
REMARK   28  A    between atoms: _67  and  _68
REMARK   29  A    between atoms: _67  and  _70
REMARK   30  A    between atoms: _70  and  _71
REMARK   31  A    between atoms: _74  and  _76
REMARK   32  A    between atoms: _76  and  _77
REMARK   33  A    between atoms: _76  and  _79
REMARK   34  A    between atoms: _79  and  _80
REMARK   35  A    between atoms: _85  and  _87
REMARK   36  A    between atoms: _87  and  _88
REMARK   37  A    between atoms: _87  and  _90
REMARK   38  A    between atoms: _90  and  _91
REMARK   39  A    between atoms: _94  and  _96
REMARK   40  A    between atoms: _96  and  _97
REMARK   41  A    between atoms: _96  and  _99
REMARK   42  A    between atoms: _102  and  _104
REMARK   43  A    between atoms: _104  and  _105
REMARK   44  A    between atoms: _104  and  _107
REMARK   45  A    between atoms: _107  and  _108
REMARK   46  A    between atoms: _108  and  _109
REMARK   47  A    between atoms: _109  and  _110
REMARK   48  A    between atoms: _110  and  _111
REMARK   49  A    between atoms: _115  and  _117
REMARK   50  A    between atoms: _117  and  _118
REMARK   51  A    between atoms: _117  and  _120
REMARK   52  A    between atoms: _120  and  _121
REMARK   53  A    between atoms: _121  and  _122
REMARK   54  A    between atoms: _124  and  _126
REMARK   55  A    between atoms: _126  and  _127
REMARK   56  A    between atoms: _126  and  _129
REMARK   57  A    between atoms: _129  and  _130
REMARK   58  A    between atoms: _133  and  _135
REMARK   59  A    between atoms: _135  and  _136
REMARK   60  A    between atoms: _138  and  _140
REMARK   61  A    between atoms: _140  and  _141
REMARK   62  A    between atoms: _143  and  _145
REMARK   63  A    between atoms: _145  and  _146
REMARK   64  A    between atoms: _145  and  _148
REMARK   65  A    between atoms: _148  and  _149
REMARK   66  A    between atoms: _152  and  _154
REMARK   67  A    between atoms: _154  and  _155
REMARK   68  A    between atoms: _157  and  _159
REMARK   69  A    between atoms: _159  and  _160
REMARK   70  A    between atoms: _162  and  _164
REMARK   71  A    between atoms: _164  and  _165
REMARK   72  A    between atoms: _164  and  _167
REMARK   73  A    between atoms: _167  and  _168
REMARK   74  A    between atoms: _174  and  _176
REMARK   75  A    between atoms: _176  and  _177
REMARK   76  A    between atoms: _176  and  _179
REMARK   77  A    between atoms: _179  and  _180
REMARK   78  A    between atoms: _183  and  _185
REMARK   79  A    between atoms: _185  and  _186
REMARK   80  A    between atoms: _185  and  _188
REMARK   81  A    between atoms: _191  and  _193
REMARK   82  A    between atoms: _193  and  _194
REMARK   83  A    between atoms: _193  and  _196
REMARK   84  A    between atoms: _196  and  _197
REMARK   85  A    between atoms: _200  and  _202
REMARK   86  A    between atoms: _202  and  _203
REMARK   87  A    between atoms: _202  and  _205
REMARK   88  A    between atoms: _205  and  _206
REMARK   89  A    between atoms: _210  and  _211
REMARK   90  A    between atoms: _216  and  _218
REMARK   91  A    between atoms: _218  and  _219
REMARK   92  A    between atoms: _218  and  _221
REMARK   93  A    between atoms: _224  and  _226
REMARK   94  A    between atoms: _226  and  _227
REMARK   95  A    between atoms: _226  and  _229
REMARK   96  A    between atoms: _229  and  _230
REMARK   97  A    between atoms: _235  and  _237
REMARK   98  A    between atoms: _237  and  _238
REMARK   99  A    between atoms: _237  and  _240
REMARK  100  A    between atoms: _240  and  _241
REMARK  101  A    between atoms: _244  and  _246
REMARK  102  A    between atoms: _246  and  _247
REMARK  103  A    between atoms: _246  and  _249
REMARK  104  A    between atoms: _249  and  _250
REMARK  105  A    between atoms: _253  and  _255
REMARK  106  A    between atoms: _255  and  _256
REMARK  107  A    between atoms: _258  and  _260
REMARK  108  A    between atoms: _260  and  _261
REMARK  109  A    between atoms: _260  and  _263
REMARK  110  A    between atoms: _263  and  _264
REMARK  111  A    between atoms: _264  and  _265
REMARK  112  A    between atoms: _265  and  _266
REMARK  113  A    between atoms: _275  and  _277
REMARK  114  A    between atoms: _277  and  _278
REMARK  115  A    between atoms: _277  and  _280
REMARK  116  A    between atoms: _280  and  _281
REMARK  117  A    between atoms: _286  and  _288
REMARK  118  A    between atoms: _288  and  _289
REMARK  119  A    between atoms: _288  and  _291
REMARK  120  A    between atoms: _291  and  _292
REMARK  121  A    between atoms: _292  and  _293
REMARK  122  A    between atoms: _293  and  _294
REMARK  123  A    between atoms: _303  and  _305
REMARK  124  A    between atoms: _305  and  _306
REMARK  125  A    between atoms: _305  and  _308
REMARK  126  A    between atoms: _308  and  _309
REMARK  127  A    between atoms: _312  and  _314
REMARK  128  A    between atoms: _314  and  _315
REMARK  129  A    between atoms: _314  and  _317
REMARK  130  A    between atoms: _317  and  _318
REMARK  131  A    between atoms: _321  and  _323
REMARK  132  A    between atoms: _323  and  _324
REMARK  133  A    between atoms: _323  and  _326
REMARK  134  A    between atoms: _326  and  _327
REMARK  135  A    between atoms: _330  and  _332
REMARK  136  A    between atoms: _332  and  _333
REMARK  137  A    between atoms: _332  and  _335
REMARK  138  A    between atoms: _335  and  _336
REMARK  139  A    between atoms: _339  and  _341
REMARK  140  A    between atoms: _341  and  _342
REMARK  141  A    between atoms: _344  and  _346
REMARK  142  A    between atoms: _346  and  _347
REMARK  143  A    between atoms: _350  and  _352
REMARK  144  A    between atoms: _352  and  _353
REMARK  145  A    between atoms: _352  and  _355
REMARK  146  A    between atoms: _355  and  _356
REMARK  147  A    between atoms: _359  and  _361
REMARK  148  A    between atoms: _361  and  _362
REMARK  149  A    between atoms: _361  and  _364
REMARK  150  A    between atoms: _364  and  _365
REMARK  151  A    between atoms: _370  and  _372
REMARK  152  A    between atoms: _372  and  _373
REMARK  153  A    between atoms: _372  and  _375
REMARK  154  A    between atoms: _375  and  _376
REMARK  155  A    between atoms: _379  and  _381
REMARK  156  A    between atoms: _381  and  _382
REMARK  157  A    between atoms: _381  and  _384
REMARK  158  A    between atoms: _387  and  _389
REMARK  159  A    between atoms: _389  and  _390
REMARK  160  A    between atoms: _389  and  _392
REMARK  161  A    between atoms: _392  and  _393
REMARK  162  A    between atoms: _393  and  _394
REMARK  163  A    between atoms: _394  and  _395
REMARK  164  A    between atoms: _395  and  _396
REMARK  165  A    between atoms: _400  and  _402
REMARK  166  A    between atoms: _402  and  _403
REMARK  167  A    between atoms: _402  and  _405
REMARK  168  A    between atoms: _405  and  _406
REMARK  169  A    between atoms: _406  and  _407
REMARK  170  A    between atoms: _409  and  _411
REMARK  171  A    between atoms: _411  and  _412
REMARK  172  A    between atoms: _411  and  _414
REMARK  173  A    between atoms: _414  and  _415
REMARK  174  A    between atoms: _418  and  _420
REMARK  175  A    between atoms: _420  and  _421
REMARK  176  A    between atoms: _423  and  _425
REMARK  177  A    between atoms: _425  and  _426
REMARK  178  A    between atoms: _428  and  _430
REMARK  179  A    between atoms: _430  and  _431
REMARK  180  A    between atoms: _430  and  _433
REMARK  181  A    between atoms: _433  and  _434
REMARK  182  A    between atoms: _437  and  _439
REMARK  183  A    between atoms: _439  and  _440
REMARK  184  A    between atoms: _442  and  _444
REMARK  185  A    between atoms: _444  and  _445
REMARK  186  A    between atoms: _447  and  _449
REMARK  187  A    between atoms: _449  and  _450
REMARK  188  A    between atoms: _449  and  _452
REMARK  189  A    between atoms: _452  and  _453
REMARK  190  A    between atoms: _459  and  _461
REMARK  191  A    between atoms: _461  and  _462
REMARK  192  A    between atoms: _461  and  _464
REMARK  193  A    between atoms: _464  and  _465
REMARK  194  A    between atoms: _468  and  _470
REMARK  195  A    between atoms: _470  and  _471
REMARK  196  A    between atoms: _470  and  _473
REMARK  197  A    between atoms: _473  and  _474
REMARK  198  A    between atoms: _477  and  _479
REMARK  199  A    between atoms: _479  and  _480
REMARK  200  A    between atoms: _479  and  _482
REMARK  201  A    between atoms: _482  and  _483
REMARK  202  A    between atoms: _487  and  _488
REMARK  203  A    between atoms: _493  and  _495
REMARK  204  A    between atoms: _495  and  _496
REMARK  205  A    between atoms: _495  and  _498
REMARK  206  A    between atoms: _501  and  _503
REMARK  207  A    between atoms: _503  and  _504
REMARK  208  A    between atoms: _503  and  _506
REMARK  209  A    between atoms: _506  and  _507
REMARK  210  A    between atoms: _512  and  _514
REMARK  211  A    between atoms: _514  and  _515
REMARK  212  A    between atoms: _514  and  _517
REMARK  213  A    between atoms: _517  and  _518
REMARK  214  A    between atoms: _521  and  _523
REMARK  215  A    between atoms: _523  and  _524
REMARK  216  A    between atoms: _523  and  _526
REMARK  217  A    between atoms: _526  and  _527
REMARK  218  A    between atoms: _530  and  _532
REMARK  219  A    between atoms: _532  and  _533
REMARK  220  A    between atoms: _535  and  _537
REMARK  221  A    between atoms: _537  and  _538
REMARK  222  A    between atoms: _537  and  _540
REMARK  223  A    between atoms: _540  and  _541
REMARK  224  A    between atoms: _541  and  _542
REMARK  225  A    between atoms: _542  and  _543
REMARK  226  A    between atoms: _552  and  _554
REMARK  227  A    between atoms: _554  and  _555
REMARK  228  A    between atoms: _554  and  _557
REMARK  229  A    between atoms: _557  and  _558
REMARK                            x       y       z     vdW  Elec       q    Type
REMARK                         _______ _______ _______ _____ _____    ______ ____
ROOT
ATOM      1  CA  VAL A   1      24.874  26.073   5.389  0.00  0.00    +0.133 C 
ENDROOT
BRANCH   1   2
ATOM      2  CB  VAL A   1      24.023  26.725   6.486  0.00  0.00    +0.023 C 
ATOM      3  CG2 VAL A   1      24.875  27.431   7.545  0.00  0.00    +0.002 C 
ATOM      4  CG1 VAL A   1      23.157  25.674   7.165  0.00  0.00    +0.002 C 
ENDBRANCH   1   2
BRANCH   1   5
ATOM      5  N   VAL A   1      25.801  25.065   5.904  0.00  0.00    -0.239 NA
ATOM      6  H   VAL A   1      26.644  25.394   6.417  0.00  0.00    +0.142 HD
ENDBRANCH   1   5
BRANCH   1   7
ATOM      7  C   VAL A   1      25.655  27.165   4.660  0.00  0.00    +0.224 C 
ATOM      8  O   VAL A   1      26.856  27.329   4.810  0.00  0.00    -0.287 OA
ENDBRANCH   1   7
TORSDOF 3
REMARK  Name = ../refined-set-2016/2qci/2qci_pocket.pdb
REMARK  229 active torsions:
REMARK  status: ('A' for Active; 'I' for Inactive)
REMARK    1  A    between atoms: _1  and  _3
REMARK    2  A    between atoms: _3  and  _4
REMARK    3  A    between atoms: _3  and  _6
REMARK    4  A    between atoms: _6  and  _7
REMARK    5  A    between atoms: _7  and  _8
REMARK    6  A    between atoms: _8  and  _9
REMARK    7  A    between atoms: _18  and  _20
REMARK    8  A    between atoms: _20  and  _21
REMARK    9  A    between atoms: _20  and  _23
REMARK   10  A    between atoms: _23  and  _24
REMARK   11  A    between atoms: _27  and  _29
REMARK   12  A    between atoms: _29  and  _30
REMARK   13  A    between atoms: _29  and  _32
REMARK   14  A    between atoms: _32  and  _33
REMARK   15  A    between atoms: _36  and  _38
REMARK   16  A    between atoms: _38  and  _39
REMARK   17  A    between atoms: _38  and  _41
REMARK   18  A    between atoms: _41  and  _42
REMARK   19  A    between atoms: _45  and  _47
REMARK   20  A    between atoms: _47  and  _48
REMARK   21  A    between atoms: _47  and  _50
REMARK   22  A    between atoms: _50  and  _51
REMARK   23  A    between atoms: _54  and  _56
REMARK   24  A    between atoms: _56  and  _57
REMARK   25  A    between atoms: _59  and  _61
REMARK   26  A    between atoms: _61  and  _62
REMARK   27  A    between atoms: _65  and  _67
REMARK   28  A    between atoms: _67  and  _68
REMARK   29  A    between atoms: _67  and  _70
REMARK   30  A    between atoms: _70  and  _71
REMARK   31  A    between atoms: _74  and  _76
REMARK   32  A    between atoms: _76  and  _77
REMARK   33  A    between atoms: _76  and  _79
REMARK   34  A    between atoms: _79  and  _80
REMARK   35  A    between atoms: _85  and  _87
REMARK   36  A    between atoms: _87  and  _88
REMARK   37  A    between atoms: _87  and  _90
REMARK   38  A    between atoms: _90  and  _91
REMARK   39  A    between atoms: _94  and  _96
REMARK   40  A    between atoms: _96  and  _97
REMARK   41  A    between atoms: _96  and  _99
REMARK   42  A    between atoms: _102  and  _104
REMARK   43  A    between atoms: _104  and  _105
REMARK   44  A    between atoms: _104  and  _107
REMARK   45  A    between atoms: _107  and  _108
REMARK   46  A    between atoms: _108  and  _109
REMARK   47  A    between atoms: _109  and  _110
REMARK   48  A    between atoms: _110  and  _111
REMARK   49  A    between atoms: _115  and  _117
REMARK   50  A    between atoms: _117  and  _118
REMARK   51  A    between atoms: _117  and  _120
REMARK   52  A    between atoms: _120  and  _121
REMARK   53  A    between atoms: _121  and  _122
REMARK   54  A    between atoms: _124  and  _126
REMARK   55  A    between atoms: _126  and  _127
REMARK   56  A    between atoms: _126  and  _129
REMARK   57  A    between atoms: _129  and  _130
REMARK   58  A    between atoms: _133  and  _135
REMARK   59  A    between atoms: _135  and  _136
REMARK   60  A    between atoms: _138  and  _140
REMARK   61  A    between atoms: _140  and  _141
REMARK   62  A    between atoms: _143  and  _145
REMARK   63  A    between atoms: _145  and  _146
REMARK   64  A    between atoms: _145  and  _148
REMARK   65  A    between atoms: _148  and  _149
REMARK   66  A    between atoms: _152  and  _154
REMARK   67  A    between atoms: _154  and  _155
REMARK   68  A    between atoms: _157  and  _159
REMARK   69  A    between atoms: _159  and  _160
REMARK   70  A    between atoms: _162  and  _164
REMARK   71  A    between atoms: _164  and  _165
REMARK   72  A    between atoms: _164  and  _167
REMARK   73  A    between atoms: _167  and  _168
REMARK   74  A    between atoms: _174  and  _176
REMARK   75  A    between atoms: _176  and  _177
REMARK   76  A    between atoms: _176  and  _179
REMARK   77  A    between atoms: _179  and  _180
REMARK   78  A    between atoms: _183  and  _185
REMARK   79  A    between atoms: _185  and  _186
REMARK   80  A    between atoms: _185  and  _188
REMARK   81  A    between atoms: _191  and  _193
REMARK   82  A    between atoms: _193  and  _194
REMARK   83  A    between atoms: _193  and  _196
REMARK   84  A    between atoms: _196  and  _197
REMARK   85  A    between atoms: _200  and  _202
REMARK   86  A    between atoms: _202  and  _203
REMARK   87  A    between atoms: _202  and  _205
REMARK   88  A    between atoms: _205  and  _206
REMARK   89  A    between atoms: _210  and  _211
REMARK   90  A    between atoms: _216  and  _218
REMARK   91  A    between atoms: _218  and  _219
REMARK   92  A    between atoms: _218  and  _221
REMARK   93  A    between atoms: _224  and  _226
REMARK   94  A    between atoms: _226  and  _227
REMARK   95  A    between atoms: _226  and  _229
REMARK   96  A    between atoms: _229  and  _230
REMARK   97  A    between atoms: _235  and  _237
REMARK   98  A    between atoms: _237  and  _238
REMARK   99  A    between atoms: _237  and  _240
REMARK  100  A    between atoms: _240  and  _241
REMARK  101  A    between atoms: _244  and  _246
REMARK  102  A    between atoms: _246  and  _247
REMARK  103  A    between atoms: _246  and  _249
REMARK  104  A    between atoms: _249  and  _250
REMARK  105  A    between atoms: _253  and  _255
REMARK  106  A    between atoms: _255  and  _256
REMARK  107  A    between atoms: _258  and  _260
REMARK  108  A    between atoms: _260  and  _261
REMARK  109  A    between atoms: _260  and  _263
REMARK  110  A    between atoms: _263  and  _264
REMARK  111  A    between atoms: _264  and  _265
REMARK  112  A    between atoms: _265  and  _266
REMARK  113  A    between atoms: _275  and  _277
REMARK  114  A    between atoms: _277  and  _278
REMARK  115  A    between atoms: _277  and  _280
REMARK  116  A    between atoms: _280  and  _281
REMARK  117  A    between atoms: _286  and  _288
REMARK  118  A    between atoms: _288  and  _289
REMARK  119  A    between atoms: _288  and  _291
REMARK  120  A    between atoms: _291  and  _292
REMARK  121  A    between atoms: _292  and  _293
REMARK  122  A    between atoms: _293  and  _294
REMARK  123  A    between atoms: _303  and  _305
REMARK  124  A    between atoms: _305  and  _306
REMARK  125  A    between atoms: _305  and  _308
REMARK  126  A    between atoms: _308  and  _309
REMARK  127  A    between atoms: _312  and  _314
REMARK  128  A    between atoms: _314  and  _315
REMARK  129  A    between atoms: _314  and  _317
REMARK  130  A    between atoms: _317  and  _318
REMARK  131  A    between atoms: _321  and  _323
REMARK  132  A    between atoms: _323  and  _324
REMARK  133  A    between atoms: _323  and  _326
REMARK  134  A    between atoms: _326  and  _327
REMARK  135  A    between atoms: _330  and  _332
REMARK  136  A    between atoms: _332  and  _333
REMARK  137  A    between atoms: _332  and  _335
REMARK  138  A    between atoms: _335  and  _336
REMARK  139  A    between atoms: _339  and  _341
REMARK  140  A    between atoms: _341  and  _342
REMARK  141  A    between atoms: _344  and  _346
REMARK  142  A    between atoms: _346  and  _347
REMARK  143  A    between atoms: _350  and  _352
REMARK  144  A    between atoms: _352  and  _353
REMARK  145  A    between atoms: _352  and  _355
REMARK  146  A    between atoms: _355  and  _356
REMARK  147  A    between atoms: _359  and  _361
REMARK  148  A    between atoms: _361  and  _362
REMARK  149  A    between atoms: _361  and  _364
REMARK  150  A    between atoms: _364  and  _365
REMARK  151  A    between atoms: _370  and  _372
REMARK  152  A    between atoms: _372  and  _373
REMARK  153  A    between atoms: _372  and  _375
REMARK  154  A    between atoms: _375  and  _376
REMARK  155  A    between atoms: _379  and  _381
REMARK  156  A    between atoms: _381  and  _382
REMARK  157  A    between atoms: _381  and  _384
REMARK  158  A    between atoms: _387  and  _389
REMARK  159  A    between atoms: _389  and  _390
REMARK  160  A    between atoms: _389  and  _392
REMARK  161  A    between atoms: _392  and  _393
REMARK  162  A    between atoms: _393  and  _394
REMARK  163  A    between atoms: _394  and  _395
REMARK  164  A    between atoms: _395  and  _396
REMARK  165  A    between atoms: _400  and  _402
REMARK  166  A    between atoms: _402  and  _403
REMARK  167  A    between atoms: _402  and  _405
REMARK  168  A    between atoms: _405  and  _406
REMARK  169  A    between atoms: _406  and  _407
REMARK  170  A    between atoms: _409  and  _411
REMARK  171  A    between atoms: _411  and  _412
REMARK  172  A    between atoms: _411  and  _414
REMARK  173  A    between atoms: _414  and  _415
REMARK  174  A    between atoms: _418  and  _420
REMARK  175  A    between atoms: _420  and  _421
REMARK  176  A    between atoms: _423  and  _425
REMARK  177  A    between atoms: _425  and  _426
REMARK  178  A    between atoms: _428  and  _430
REMARK  179  A    between atoms: _430  and  _431
REMARK  180  A    between atoms: _430  and  _433
REMARK  181  A    between atoms: _433  and  _434
REMARK  182  A    between atoms: _437  and  _439
REMARK  183  A    between atoms: _439  and  _440
REMARK  184  A    between atoms: _442  and  _444
REMARK  185  A    between atoms: _444  and  _445
REMARK  186  A    between atoms: _447  and  _449
REMARK  187  A    between atoms: _449  and  _450
REMARK  188  A    between atoms: _449  and  _452
REMARK  189  A    between atoms: _452  and  _453
REMARK  190  A    between atoms: _459  and  _461
REMARK  191  A    between atoms: _461  and  _462
REMARK  192  A    between atoms: _461  and  _464
REMARK  193  A    between atoms: _464  and  _465
REMARK  194  A    between atoms: _468  and  _470
REMARK  195  A    between atoms: _470  and  _471
REMARK  196  A    between atoms: _470  and  _473
REMARK  197  A    between atoms: _473  and  _474
REMARK  198  A    between atoms: _477  and  _479
REMARK  199  A    between atoms: _479  and  _480
REMARK  200  A    between atoms: _479  and  _482
REMARK  201  A    between atoms: _482  and  _483
REMARK  202  A    between atoms: _487  and  _488
REMARK  203  A    between atoms: _493  and  _495
REMARK  204  A    between atoms: _495  and  _496
REMARK  205  A    between atoms: _495  and  _498
REMARK  206  A    between atoms: _501  and  _503
REMARK  207  A    between atoms: _503  and  _504
REMARK  208  A    between atoms: _503  and  _506
REMARK  209  A    between atoms: _506  and  _507
REMARK  210  A    between atoms: _512  and  _514
REMARK  211  A    between atoms: _514  and  _515
REMARK  212  A    between atoms: _514  and  _517
REMARK  213  A    between atoms: _517  and  _518
REMARK  214  A    between atoms: _521  and  _523
REMARK  215  A    between atoms: _523  and  _524
REMARK  216  A    between atoms: _523  and  _526
REMARK  217  A    between atoms: _526  and  _527
REMARK  218  A    between atoms: _530  and  _532
REMARK  219  A    between atoms: _532  and  _533
REMARK  220  A    between atoms: _535  and  _537
REMARK  221  A    between atoms: _537  and  _538
REMARK  222  A    between atoms: _537  and  _540
REMARK  223  A    between atoms: _540  and  _541
REMARK  224  A    between atoms: _541  and  _542
REMARK  225  A    between atoms: _542  and  _543
REMARK  226  A    between atoms: _552  and  _554
REMARK  227  A    between atoms: _554  and  _555
REMARK  228  A    between atoms: _554  and  _557
REMARK  229  A    between atoms: _557  and  _558
REMARK                            x       y       z     vdW  Elec       q    Type
REMARK                         _______ _______ _______ _____ _____    ______ ____
ROOT
ATOM      1  CA  LEU A   1      21.439  30.669   6.767  0.00  0.00    +0.133 C 
ENDROOT
BRANCH   1   2
ATOM      2  N   LEU A   1      20.712  31.874   7.112  0.00  0.00    -0.239 NA
ATOM      3  H   LEU A   1      20.076  31.851   7.934  0.00  0.00    +0.142 HD
ENDBRANCH   1   2
BRANCH   1   4
ATOM      4  C   LEU A   1      20.599  29.774   5.907  0.00  0.00    +0.224 C 
ATOM      5  O   LEU A   1      19.422  29.604   6.220  0.00  0.00    -0.287 OA
ENDBRANCH   1   4
BRANCH   1   6
ATOM      6  CB  LEU A   1      21.855  29.961   8.053  0.00  0.00    +0.025 C 
BRANCH   6   7
ATOM      7  CG  LEU A   1      22.584  30.817   9.087  0.00  0.00    +0.002 C 
ATOM      8  CD2 LEU A   1      23.005  29.971  10.261  0.00  0.00    +0.000 C 
ATOM      9  CD1 LEU A   1      23.801  31.543   8.507  0.00  0.00    +0.000 C 
ENDBRANCH   6   7
ENDBRANCH   1   6
TORSDOF 4
REMARK  Name = ../refined-set-2016/2qci/2qci_pocket.pdb
REMARK  229 active torsions:
REMARK  status: ('A' for Active; 'I' for Inactive)
REMARK    1  A    between atoms: _1  and  _3
REMARK    2  A    between atoms: _3  and  _4
REMARK    3  A    between atoms: _3  and  _6
REMARK    4  A    between atoms: _6  and  _7
REMARK    5  A    between atoms: _7  and  _8
REMARK    6  A    between atoms: _8  and  _9
REMARK    7  A    between atoms: _18  and  _20
REMARK    8  A    between atoms: _20  and  _21
REMARK    9  A    between atoms: _20  and  _23
REMARK   10  A    between atoms: _23  and  _24
REMARK   11  A    between atoms: _27  and  _29
REMARK   12  A    between atoms: _29  and  _30
REMARK   13  A    between atoms: _29  and  _32
REMARK   14  A    between atoms: _32  and  _33
REMARK   15  A    between atoms: _36  and  _38
REMARK   16  A    between atoms: _38  and  _39
REMARK   17  A    between atoms: _38  and  _41
REMARK   18  A    between atoms: _41  and  _42
REMARK   19  A    between atoms: _45  and  _47
REMARK   20  A    between atoms: _47  and  _48
REMARK   21  A    between atoms: _47  and  _50
REMARK   22  A    between atoms: _50  and  _51
REMARK   23  A    between atoms: _54  and  _56
REMARK   24  A    between atoms: _56  and  _57
REMARK   25  A    between atoms: _59  and  _61
REMARK   26  A    between atoms: _61  and  _62
REMARK   27  A    between atoms: _65  and  _67
REMARK   28  A    between atoms: _67  and  _68
REMARK   29  A    between atoms: _67  and  _70
REMARK   30  A    between atoms: _70  and  _71
REMARK   31  A    between atoms: _74  and  _76
REMARK   32  A    between atoms: _76  and  _77
REMARK   33  A    between atoms: _76  and  _79
REMARK   34  A    between atoms: _79  and  _80
REMARK   35  A    between atoms: _85  and  _87
REMARK   36  A    between atoms: _87  and  _88
REMARK   37  A    between atoms: _87  and  _90
REMARK   38  A    between atoms: _90  and  _91
REMARK   39  A    between atoms: _94  and  _96
REMARK   40  A    between atoms: _96  and  _97
REMARK   41  A    between atoms: _96  and  _99
REMARK   42  A    between atoms: _102  and  _104
REMARK   43  A    between atoms: _104  and  _105
REMARK   44  A    between atoms: _104  and  _107
REMARK   45  A    between atoms: _107  and  _108
REMARK   46  A    between atoms: _108  and  _109
REMARK   47  A    between atoms: _109  and  _110
REMARK   48  A    between atoms: _110  and  _111
REMARK   49  A    between atoms: _115  and  _117
REMARK   50  A    between atoms: _117  and  _118
REMARK   51  A    between atoms: _117  and  _120
REMARK   52  A    between atoms: _120  and  _121
REMARK   53  A    between atoms: _121  and  _122
REMARK   54  A    between atoms: _124  and  _126
REMARK   55  A    between atoms: _126  and  _127
REMARK   56  A    between atoms: _126  and  _129
REMARK   57  A    between atoms: _129  and  _130
REMARK   58  A    between atoms: _133  and  _135
REMARK   59  A    between atoms: _135  and  _136
REMARK   60  A    between atoms: _138  and  _140
REMARK   61  A    between atoms: _140  and  _141
REMARK   62  A    between atoms: _143  and  _145
REMARK   63  A    between atoms: _145  and  _146
REMARK   64  A    between atoms: _145  and  _148
REMARK   65  A    between atoms: _148  and  _149
REMARK   66  A    between atoms: _152  and  _154
REMARK   67  A    between atoms: _154  and  _155
REMARK   68  A    between atoms: _157  and  _159
REMARK   69  A    between atoms: _159  and  _160
REMARK   70  A    between atoms: _162  and  _164
REMARK   71  A    between atoms: _164  and  _165
REMARK   72  A    between atoms: _164  and  _167
REMARK   73  A    between atoms: _167  and  _168
REMARK   74  A    between atoms: _174  and  _176
REMARK   75  A    between atoms: _176  and  _177
REMARK   76  A    between atoms: _176  and  _179
REMARK   77  A    between atoms: _179  and  _180
REMARK   78  A    between atoms: _183  and  _185
REMARK   79  A    between atoms: _185  and  _186
REMARK   80  A    between atoms: _185  and  _188
REMARK   81  A    between atoms: _191  and  _193
REMARK   82  A    between atoms: _193  and  _194
REMARK   83  A    between atoms: _193  and  _196
REMARK   84  A    between atoms: _196  and  _197
REMARK   85  A    between atoms: _200  and  _202
REMARK   86  A    between atoms: _202  and  _203
REMARK   87  A    between atoms: _202  and  _205
REMARK   88  A    between atoms: _205  and  _206
REMARK   89  A    between atoms: _210  and  _211
REMARK   90  A    between atoms: _216  and  _218
REMARK   91  A    between atoms: _218  and  _219
REMARK   92  A    between atoms: _218  and  _221
REMARK   93  A    between atoms: _224  and  _226
REMARK   94  A    between atoms: _226  and  _227
REMARK   95  A    between atoms: _226  and  _229
REMARK   96  A    between atoms: _229  and  _230
REMARK   97  A    between atoms: _235  and  _237
REMARK   98  A    between atoms: _237  and  _238
REMARK   99  A    between atoms: _237  and  _240
REMARK  100  A    between atoms: _240  and  _241
REMARK  101  A    between atoms: _244  and  _246
REMARK  102  A    between atoms: _246  and  _247
REMARK  103  A    between atoms: _246  and  _249
REMARK  104  A    between atoms: _249  and  _250
REMARK  105  A    between atoms: _253  and  _255
REMARK  106  A    between atoms: _255  and  _256
REMARK  107  A    between atoms: _258  and  _260
REMARK  108  A    between atoms: _260  and  _261
REMARK  109  A    between atoms: _260  and  _263
REMARK  110  A    between atoms: _263  and  _264
REMARK  111  A    between atoms: _264  and  _265
REMARK  112  A    between atoms: _265  and  _266
REMARK  113  A    between atoms: _275  and  _277
REMARK  114  A    between atoms: _277  and  _278
REMARK  115  A    between atoms: _277  and  _280
REMARK  116  A    between atoms: _280  and  _281
REMARK  117  A    between atoms: _286  and  _288
REMARK  118  A    between atoms: _288  and  _289
REMARK  119  A    between atoms: _288  and  _291
REMARK  120  A    between atoms: _291  and  _292
REMARK  121  A    between atoms: _292  and  _293
REMARK  122  A    between atoms: _293  and  _294
REMARK  123  A    between atoms: _303  and  _305
REMARK  124  A    between atoms: _305  and  _306
REMARK  125  A    between atoms: _305  and  _308
REMARK  126  A    between atoms: _308  and  _309
REMARK  127  A    between atoms: _312  and  _314
REMARK  128  A    between atoms: _314  and  _315
REMARK  129  A    between atoms: _314  and  _317
REMARK  130  A    between atoms: _317  and  _318
REMARK  131  A    between atoms: _321  and  _323
REMARK  132  A    between atoms: _323  and  _324
REMARK  133  A    between atoms: _323  and  _326
REMARK  134  A    between atoms: _326  and  _327
REMARK  135  A    between atoms: _330  and  _332
REMARK  136  A    between atoms: _332  and  _333
REMARK  137  A    between atoms: _332  and  _335
REMARK  138  A    between atoms: _335  and  _336
REMARK  139  A    between atoms: _339  and  _341
REMARK  140  A    between atoms: _341  and  _342
REMARK  141  A    between atoms: _344  and  _346
REMARK  142  A    between atoms: _346  and  _347
REMARK  143  A    between atoms: _350  and  _352
REMARK  144  A    between atoms: _352  and  _353
REMARK  145  A    between atoms: _352  and  _355
REMARK  146  A    between atoms: _355  and  _356
REMARK  147  A    between atoms: _359  and  _361
REMARK  148  A    between atoms: _361  and  _362
REMARK  149  A    between atoms: _361  and  _364
REMARK  150  A    between atoms: _364  and  _365
REMARK  151  A    between atoms: _370  and  _372
REMARK  152  A    between atoms: _372  and  _373
REMARK  153  A    between atoms: _372  and  _375
REMARK  154  A    between atoms: _375  and  _376
REMARK  155  A    between atoms: _379  and  _381
REMARK  156  A    between atoms: _381  and  _382
REMARK  157  A    between atoms: _381  and  _384
REMARK  158  A    between atoms: _387  and  _389
REMARK  159  A    between atoms: _389  and  _390
REMARK  160  A    between atoms: _389  and  _392
REMARK  161  A    between atoms: _392  and  _393
REMARK  162  A    between atoms: _393  and  _394
REMARK  163  A    between atoms: _394  and  _395
REMARK  164  A    between atoms: _395  and  _396
REMARK  165  A    between atoms: _400  and  _402
REMARK  166  A    between atoms: _402  and  _403
REMARK  167  A    between atoms: _402  and  _405
REMARK  168  A    between atoms: _405  and  _406
REMARK  169  A    between atoms: _406  and  _407
REMARK  170  A    between atoms: _409  and  _411
REMARK  171  A    between atoms: _411  and  _412
REMARK  172  A    between atoms: _411  and  _414
REMARK  173  A    between atoms: _414  and  _415
REMARK  174  A    between atoms: _418  and  _420
REMARK  175  A    between atoms: _420  and  _421
REMARK  176  A    between atoms: _423  and  _425
REMARK  177  A    between atoms: _425  and  _426
REMARK  178  A    between atoms: _428  and  _430
REMARK  179  A    between atoms: _430  and  _431
REMARK  180  A    between atoms: _430  and  _433
REMARK  181  A    between atoms: _433  and  _434
REMARK  182  A    between atoms: _437  and  _439
REMARK  183  A    between atoms: _439  and  _440
REMARK  184  A    between atoms: _442  and  _444
REMARK  185  A    between atoms: _444  and  _445
REMARK  186  A    between atoms: _447  and  _449
REMARK  187  A    between atoms: _449  and  _450
REMARK  188  A    between atoms: _449  and  _452
REMARK  189  A    between atoms: _452  and  _453
REMARK  190  A    between atoms: _459  and  _461
REMARK  191  A    between atoms: _461  and  _462
REMARK  192  A    between atoms: _461  and  _464
REMARK  193  A    between atoms: _464  and  _465
REMARK  194  A    between atoms: _468  and  _470
REMARK  195  A    between atoms: _470  and  _471
REMARK  196  A    between atoms: _470  and  _473
REMARK  197  A    between atoms: _473  and  _474
REMARK  198  A    between atoms: _477  and  _479
REMARK  199  A    between atoms: _479  and  _480
REMARK  200  A    between atoms: _479  and  _482
REMARK  201  A    between atoms: _482  and  _483
REMARK  202  A    between atoms: _487  and  _488
REMARK  203  A    between atoms: _493  and  _495
REMARK  204  A    between atoms: _495  and  _496
REMARK  205  A    between atoms: _495  and  _498
REMARK  206  A    between atoms: _501  and  _503
REMARK  207  A    between atoms: _503  and  _504
REMARK  208  A    between atoms: _503  and  _506
REMARK  209  A    between atoms: _506  and  _507
REMARK  210  A    between atoms: _512  and  _514
REMARK  211  A    between atoms: _514  and  _515
REMARK  212  A    between atoms: _514  and  _517
REMARK  213  A    between atoms: _517  and  _518
REMARK  214  A    between atoms: _521  and  _523
REMARK  215  A    between atoms: _523  and  _524
REMARK  216  A    between atoms: _523  and  _526
REMARK  217  A    between atoms: _526  and  _527
REMARK  218  A    between atoms: _530  and  _532
REMARK  219  A    between atoms: _532  and  _533
REMARK  220  A    between atoms: _535  and  _537
REMARK  221  A    between atoms: _537  and  _538
REMARK  222  A    between atoms: _537  and  _540
REMARK  223  A    between atoms: _540  and  _541
REMARK  224  A    between atoms: _541  and  _542
REMARK  225  A    between atoms: _542  and  _543
REMARK  226  A    between atoms: _552  and  _554
REMARK  227  A    between atoms: _554  and  _555
REMARK  228  A    between atoms: _554  and  _557
REMARK  229  A    between atoms: _557  and  _558
REMARK                            x       y       z     vdW  Elec       q    Type
REMARK                         _______ _______ _______ _____ _____    ______ ____
ROOT
ATOM      1  C   ILE A   5      13.645  29.877  11.457  0.00  0.00    +0.241 C 
ATOM      2  N   ILE A   6      12.806  30.654  12.096  0.00  0.00    -0.297 N 
ATOM      3  H   ILE A   6      11.896  30.257  12.406  0.00  0.00    +0.150 HD
ATOM      4  O   ILE A   5      14.675  30.294  10.881  0.00  0.00    -0.273 OA
ENDROOT
BRANCH   2   5
ATOM      5  CA  ILE A   6      13.097  32.069  12.395  0.00  0.00    +0.149 C 
BRANCH   5   6
ATOM      6  C   ILE A   6      13.738  32.123  13.781  0.00  0.00    +0.241 C 
ATOM      7  O   ILE A   6      13.077  31.810  14.784  0.00  0.00    -0.273 OA
ATOM      8  N   GLY A   7      15.011  32.479  13.827  0.00  0.00    -0.295 N 
ATOM      9  H   GLY A   7      15.502  32.714  12.941  0.00  0.00    +0.150 HD
BRANCH   8  10
ATOM     10  CA  GLY A   7      15.738  32.551  15.072  0.00  0.00    +0.176 C 
BRANCH  10  11
ATOM     11  C   GLY A   7      15.782  33.934  15.683  0.00  0.00    +0.243 C 
ATOM     12  N   ARG A   8      16.493  33.982  16.800  0.00  0.00    -0.297 N 
ATOM     13  H   ARG A   8      17.058  33.162  17.100  0.00  0.00    +0.150 HD
ATOM     14  O   GLY A   7      15.196  34.877  15.160  0.00  0.00    -0.273 OA
BRANCH  12  15
ATOM     15  CA  ARG A   8      16.474  35.187  17.597  0.00  0.00    +0.149 C 
BRANCH  15  16
ATOM     16  C   ARG A   8      17.000  36.410  16.842  0.00  0.00    +0.241 C 
ATOM     17  O   ARG A   8      16.527  37.527  17.130  0.00  0.00    -0.273 OA
ATOM     18  N   ASN A   9      17.915  36.241  15.921  0.00  0.00    -0.298 N 
ATOM     19  H   ASN A   9      18.257  35.283  15.704  0.00  0.00    +0.150 HD
BRANCH  18  20
ATOM     20  CA  ASN A   9      18.461  37.388  15.195  0.00  0.00    +0.146 C 
BRANCH  20  21
ATOM     21  C   ASN A   9      17.385  38.172  14.463  0.00  0.00    +0.227 C 
ATOM     22  O   ASN A   9      17.556  39.370  14.265  0.00  0.00    -0.286 OA
ENDBRANCH  20  21
BRANCH  20  23
ATOM     23  CB  ASN A   9      19.540  36.925  14.222  0.00  0.00    +0.112 C 
BRANCH  23  24
ATOM     24  CG  ASN A   9      19.014  36.190  13.013  0.00  0.00    +0.222 C 
ATOM     25  OD1 ASN A   9      18.292  35.201  13.121  0.00  0.00    -0.275 OA
ATOM     26  ND2 ASN A   9      19.366  36.731  11.853  0.00  0.00    -0.329 N 
ATOM     27 HD21 ASN A   9      19.981  37.569  11.836  0.00  0.00    +0.145 HD
ATOM     28 HD22 ASN A   9      19.027  36.316  10.962  0.00  0.00    +0.145 HD
ENDBRANCH  23  24
ENDBRANCH  20  23
ENDBRANCH  18  20
ENDBRANCH  15  16
BRANCH  15  29
ATOM     29  CB  ARG A   8      17.280  35.006  18.862  0.00  0.00    +0.033 C 
BRANCH  29  30
ATOM     30  CG  ARG A   8      16.660  34.011  19.854  0.00  0.00    +0.045 C 
BRANCH  30  31
ATOM     31  CD  ARG A   8      17.333  33.965  21.215  0.00  0.00    +0.174 C 
BRANCH  31  32
ATOM     32  NE  ARG A   8      18.726  33.542  21.058  0.00  0.00    -0.265 N 
ATOM     33  CZ  ARG A   8      19.824  34.289  21.029  0.00  0.00    +0.342 C 
ATOM     34  NH2 ARG A   8      19.775  35.610  21.168  0.00  0.00    -0.292 N 
ATOM     35 HH21 ARG A   8      18.860  36.085  21.304  0.00  0.00    +0.255 HD
ATOM     36 HH22 ARG A   8      20.652  36.169  21.141  0.00  0.00    +0.255 HD
ATOM     37  NH1 ARG A   8      21.018  33.741  20.863  0.00  0.00    -0.292 N 
ATOM     38 HH11 ARG A   8      21.867  34.341  20.843  0.00  0.00    +0.255 HD
ATOM     39 HH12 ARG A   8      21.107  32.711  20.753  0.00  0.00    +0.255 HD
ATOM     40  HE  ARG A   8      18.876  32.518  20.955  0.00  0.00    +0.259 HD
ENDBRANCH  31  32
ENDBRANCH  30  31
ENDBRANCH  29  30
ENDBRANCH  15  29
ENDBRANCH  12  15
ENDBRANCH  10  11
ENDBRANCH   8  10
ENDBRANCH   5   6
BRANCH   5  41
ATOM     41  CB  ILE A   6      11.862  32.964  12.329  0.00  0.00    +0.027 C 
ATOM     42  CG2 ILE A   6      12.191  34.422  12.628  0.00  0.00    +0.002 C 
BRANCH  41  43
ATOM     43  CG1 ILE A   6      11.107  32.868  10.988  0.00  0.00    +0.002 C 
ATOM     44  CD1 ILE A   6      11.950  33.174   9.767  0.00  0.00    +0.000 C 
ENDBRANCH  41  43
ENDBRANCH   5  41
ENDBRANCH   2   5
BRANCH   1  45
ATOM     45  CA  ILE A   5      13.340  28.404  11.437  0.00  0.00    +0.149 C 
BRANCH  45  48
ATOM     46  C   ASN A   4      12.172  27.250   9.613  0.00  0.00    +0.241 C 
ATOM     47  O   ASN A   4      11.127  27.134  10.219  0.00  0.00    -0.273 OA
ATOM     48  N   ILE A   5      13.240  27.886  10.089  0.00  0.00    -0.297 N 
ATOM     49  H   ILE A   5      14.052  28.019   9.453  0.00  0.00    +0.150 HD
BRANCH  46  50
ATOM     50  CA  ASN A   4      12.337  26.674   8.210  0.00  0.00    +0.158 C 
BRANCH  50  53
ATOM     51  C   VAL A   3      12.662  24.336   8.742  0.00  0.00    +0.241 C 
ATOM     52  O   VAL A   3      13.825  24.562   9.139  0.00  0.00    -0.273 OA
ATOM     53  N   ASN A   4      11.918  25.284   8.184  0.00  0.00    -0.297 N 
ATOM     54  H   ASN A   4      11.022  25.027   7.722  0.00  0.00    +0.150 HD
BRANCH  51  55
ATOM     55  CA  VAL A   3      12.096  22.965   8.889  0.00  0.00    +0.149 C 
BRANCH  55  57
ATOM     56  C   PRO A   2      13.030  20.806   8.187  0.00  0.00    +0.245 C 
ATOM     57  N   VAL A   3      13.180  21.991   8.723  0.00  0.00    -0.297 N 
ATOM     58  H   VAL A   3      14.129  22.259   9.052  0.00  0.00    +0.150 HD
ATOM     59  O   PRO A   2      11.953  20.436   7.740  0.00  0.00    -0.273 OA
BRANCH  56  65
ATOM     60  C   THR A   1      15.996  21.329   7.427  0.00  0.00    +0.244 C 
ATOM     61  N   PRO A   2      15.530  20.496   8.351  0.00  0.00    -0.264 N 
ATOM     62  CD  PRO A   2      16.171  20.076   9.618  0.00  0.00    +0.120 C 
ATOM     63  CG  PRO A   2      15.182  19.118  10.191  0.00  0.00    -0.007 C 
ATOM     64  CB  PRO A   2      14.075  18.866   9.290  0.00  0.00    -0.000 C 
ATOM     65  CA  PRO A   2      14.228  19.850   8.130  0.00  0.00    +0.175 C 
ATOM     66  O   THR A   1      15.403  21.545   6.353  0.00  0.00    -0.273 OA
BRANCH  60  67
ATOM     67  CA  THR A   1      17.305  22.051   7.706  0.00  0.00    +0.172 C 
BRANCH  67  68
ATOM     68  N   THR A   1      18.112  22.110   6.494  0.00  0.00    -0.236 NA
ATOM     69  H   THR A   1      18.175  23.015   5.986  0.00  0.00    +0.142 HD
ENDBRANCH  67  68
BRANCH  67  70
ATOM     70  CB  THR A   1      17.082  23.481   8.247  0.00  0.00    +0.135 C 
ATOM     71  CG2 THR A   1      16.388  24.413   7.272  0.00  0.00    +0.034 C 
BRANCH  70  72
ATOM     72  OG1 THR A   1      16.236  23.342   9.390  0.00  0.00    -0.383 OA
ATOM     73  HG1 THR A   1      15.381  22.925   9.117  0.00  0.00    +0.210 HD
ENDBRANCH  70  72
ENDBRANCH  67  70
ENDBRANCH  60  67
ENDBRANCH  56  65
ENDBRANCH  55  57
BRANCH  55  74
ATOM     74  CB  VAL A   3      11.483  22.835  10.297  0.00  0.00    +0.027 C 
ATOM     75  CG2 VAL A   3      10.580  23.978  10.733  0.00  0.00    +0.002 C 
ATOM     76  CG1 VAL A   3      10.674  21.520  10.391  0.00  0.00    +0.002 C 
ENDBRANCH  55  74
ENDBRANCH  51  55
ENDBRANCH  50  53
BRANCH  50  77
ATOM     77  CB  ASN A   4      11.509  27.491   7.240  0.00  0.00    +0.114 C 
BRANCH  77  78
ATOM     78  CG  ASN A   4      11.607  27.063   5.781  0.00  0.00    +0.222 C 
ATOM     79  OD1 ASN A   4      12.707  26.725   5.354  0.00  0.00    -0.275 OA
ATOM     80  ND2 ASN A   4      10.495  27.094   5.067  0.00  0.00    -0.329 N 
ATOM     81 HD21 ASN A   4       9.602  27.394   5.508  0.00  0.00    +0.145 HD
ATOM     82 HD22 ASN A   4      10.513  26.818   4.064  0.00  0.00    +0.145 HD
ENDBRANCH  77  78
ENDBRANCH  50  77
ENDBRANCH  46  50
ENDBRANCH  45  48
BRANCH  45  83
ATOM     83  CB  ILE A   5      14.463  27.633  12.199  0.00  0.00    +0.027 C 
ATOM     84  CG2 ILE A   5      14.879  28.342  13.481  0.00  0.00    +0.002 C 
BRANCH  83  85
ATOM     85  CG1 ILE A   5      14.013  26.177  12.336  0.00  0.00    +0.002 C 
ATOM     86  CD1 ILE A   5      15.300  25.323  12.450  0.00  0.00    +0.000 C 
ENDBRANCH  83  85
ENDBRANCH  45  83
ENDBRANCH   1  45
TORSDOF 32
REMARK  Name = ../refined-set-2016/2qci/2qci_pocket.pdb
REMARK  229 active torsions:
REMARK  status: ('A' for Active; 'I' for Inactive)
REMARK    1  A    between atoms: _1  and  _3
REMARK    2  A    between atoms: _3  and  _4
REMARK    3  A    between atoms: _3  and  _6
REMARK    4  A    between atoms: _6  and  _7
REMARK    5  A    between atoms: _7  and  _8
REMARK    6  A    between atoms: _8  and  _9
REMARK    7  A    between atoms: _18  and  _20
REMARK    8  A    between atoms: _20  and  _21
REMARK    9  A    between atoms: _20  and  _23
REMARK   10  A    between atoms: _23  and  _24
REMARK   11  A    between atoms: _27  and  _29
REMARK   12  A    between atoms: _29  and  _30
REMARK   13  A    between atoms: _29  and  _32
REMARK   14  A    between atoms: _32  and  _33
REMARK   15  A    between atoms: _36  and  _38
REMARK   16  A    between atoms: _38  and  _39
REMARK   17  A    between atoms: _38  and  _41
REMARK   18  A    between atoms: _41  and  _42
REMARK   19  A    between atoms: _45  and  _47
REMARK   20  A    between atoms: _47  and  _48
REMARK   21  A    between atoms: _47  and  _50
REMARK   22  A    between atoms: _50  and  _51
REMARK   23  A    between atoms: _54  and  _56
REMARK   24  A    between atoms: _56  and  _57
REMARK   25  A    between atoms: _59  and  _61
REMARK   26  A    between atoms: _61  and  _62
REMARK   27  A    between atoms: _65  and  _67
REMARK   28  A    between atoms: _67  and  _68
REMARK   29  A    between atoms: _67  and  _70
REMARK   30  A    between atoms: _70  and  _71
REMARK   31  A    between atoms: _74  and  _76
REMARK   32  A    between atoms: _76  and  _77
REMARK   33  A    between atoms: _76  and  _79
REMARK   34  A    between atoms: _79  and  _80
REMARK   35  A    between atoms: _85  and  _87
REMARK   36  A    between atoms: _87  and  _88
REMARK   37  A    between atoms: _87  and  _90
REMARK   38  A    between atoms: _90  and  _91
REMARK   39  A    between atoms: _94  and  _96
REMARK   40  A    between atoms: _96  and  _97
REMARK   41  A    between atoms: _96  and  _99
REMARK   42  A    between atoms: _102  and  _104
REMARK   43  A    between atoms: _104  and  _105
REMARK   44  A    between atoms: _104  and  _107
REMARK   45  A    between atoms: _107  and  _108
REMARK   46  A    between atoms: _108  and  _109
REMARK   47  A    between atoms: _109  and  _110
REMARK   48  A    between atoms: _110  and  _111
REMARK   49  A    between atoms: _115  and  _117
REMARK   50  A    between atoms: _117  and  _118
REMARK   51  A    between atoms: _117  and  _120
REMARK   52  A    between atoms: _120  and  _121
REMARK   53  A    between atoms: _121  and  _122
REMARK   54  A    between atoms: _124  and  _126
REMARK   55  A    between atoms: _126  and  _127
REMARK   56  A    between atoms: _126  and  _129
REMARK   57  A    between atoms: _129  and  _130
REMARK   58  A    between atoms: _133  and  _135
REMARK   59  A    between atoms: _135  and  _136
REMARK   60  A    between atoms: _138  and  _140
REMARK   61  A    between atoms: _140  and  _141
REMARK   62  A    between atoms: _143  and  _145
REMARK   63  A    between atoms: _145  and  _146
REMARK   64  A    between atoms: _145  and  _148
REMARK   65  A    between atoms: _148  and  _149
REMARK   66  A    between atoms: _152  and  _154
REMARK   67  A    between atoms: _154  and  _155
REMARK   68  A    between atoms: _157  and  _159
REMARK   69  A    between atoms: _159  and  _160
REMARK   70  A    between atoms: _162  and  _164
REMARK   71  A    between atoms: _164  and  _165
REMARK   72  A    between atoms: _164  and  _167
REMARK   73  A    between atoms: _167  and  _168
REMARK   74  A    between atoms: _174  and  _176
REMARK   75  A    between atoms: _176  and  _177
REMARK   76  A    between atoms: _176  and  _179
REMARK   77  A    between atoms: _179  and  _180
REMARK   78  A    between atoms: _183  and  _185
REMARK   79  A    between atoms: _185  and  _186
REMARK   80  A    between atoms: _185  and  _188
REMARK   81  A    between atoms: _191  and  _193
REMARK   82  A    between atoms: _193  and  _194
REMARK   83  A    between atoms: _193  and  _196
REMARK   84  A    between atoms: _196  and  _197
REMARK   85  A    between atoms: _200  and  _202
REMARK   86  A    between atoms: _202  and  _203
REMARK   87  A    between atoms: _202  and  _205
REMARK   88  A    between atoms: _205  and  _206
REMARK   89  A    between atoms: _210  and  _211
REMARK   90  A    between atoms: _216  and  _218
REMARK   91  A    between atoms: _218  and  _219
REMARK   92  A    between atoms: _218  and  _221
REMARK   93  A    between atoms: _224  and  _226
REMARK   94  A    between atoms: _226  and  _227
REMARK   95  A    between atoms: _226  and  _229
REMARK   96  A    between atoms: _229  and  _230
REMARK   97  A    between atoms: _235  and  _237
REMARK   98  A    between atoms: _237  and  _238
REMARK   99  A    between atoms: _237  and  _240
REMARK  100  A    between atoms: _240  and  _241
REMARK  101  A    between atoms: _244  and  _246
REMARK  102  A    between atoms: _246  and  _247
REMARK  103  A    between atoms: _246  and  _249
REMARK  104  A    between atoms: _249  and  _250
REMARK  105  A    between atoms: _253  and  _255
REMARK  106  A    between atoms: _255  and  _256
REMARK  107  A    between atoms: _258  and  _260
REMARK  108  A    between atoms: _260  and  _261
REMARK  109  A    between atoms: _260  and  _263
REMARK  110  A    between atoms: _263  and  _264
REMARK  111  A    between atoms: _264  and  _265
REMARK  112  A    between atoms: _265  and  _266
REMARK  113  A    between atoms: _275  and  _277
REMARK  114  A    between atoms: _277  and  _278
REMARK  115  A    between atoms: _277  and  _280
REMARK  116  A    between atoms: _280  and  _281
REMARK  117  A    between atoms: _286  and  _288
REMARK  118  A    between atoms: _288  and  _289
REMARK  119  A    between atoms: _288  and  _291
REMARK  120  A    between atoms: _291  and  _292
REMARK  121  A    between atoms: _292  and  _293
REMARK  122  A    between atoms: _293  and  _294
REMARK  123  A    between atoms: _303  and  _305
REMARK  124  A    between atoms: _305  and  _306
REMARK  125  A    between atoms: _305  and  _308
REMARK  126  A    between atoms: _308  and  _309
REMARK  127  A    between atoms: _312  and  _314
REMARK  128  A    between atoms: _314  and  _315
REMARK  129  A    between atoms: _314  and  _317
REMARK  130  A    between atoms: _317  and  _318
REMARK  131  A    between atoms: _321  and  _323
REMARK  132  A    between atoms: _323  and  _324
REMARK  133  A    between atoms: _323  and  _326
REMARK  134  A    between atoms: _326  and  _327
REMARK  135  A    between atoms: _330  and  _332
REMARK  136  A    between atoms: _332  and  _333
REMARK  137  A    between atoms: _332  and  _335
REMARK  138  A    between atoms: _335  and  _336
REMARK  139  A    between atoms: _339  and  _341
REMARK  140  A    between atoms: _341  and  _342
REMARK  141  A    between atoms: _344  and  _346
REMARK  142  A    between atoms: _346  and  _347
REMARK  143  A    between atoms: _350  and  _352
REMARK  144  A    between atoms: _352  and  _353
REMARK  145  A    between atoms: _352  and  _355
REMARK  146  A    between atoms: _355  and  _356
REMARK  147  A    between atoms: _359  and  _361
REMARK  148  A    between atoms: _361  and  _362
REMARK  149  A    between atoms: _361  and  _364
REMARK  150  A    between atoms: _364  and  _365
REMARK  151  A    between atoms: _370  and  _372
REMARK  152  A    between atoms: _372  and  _373
REMARK  153  A    between atoms: _372  and  _375
REMARK  154  A    between atoms: _375  and  _376
REMARK  155  A    between atoms: _379  and  _381
REMARK  156  A    between atoms: _381  and  _382
REMARK  157  A    between atoms: _381  and  _384
REMARK  158  A    between atoms: _387  and  _389
REMARK  159  A    between atoms: _389  and  _390
REMARK  160  A    between atoms: _389  and  _392
REMARK  161  A    between atoms: _392  and  _393
REMARK  162  A    between atoms: _393  and  _394
REMARK  163  A    between atoms: _394  and  _395
REMARK  164  A    between atoms: _395  and  _396
REMARK  165  A    between atoms: _400  and  _402
REMARK  166  A    between atoms: _402  and  _403
REMARK  167  A    between atoms: _402  and  _405
REMARK  168  A    between atoms: _405  and  _406
REMARK  169  A    between atoms: _406  and  _407
REMARK  170  A    between atoms: _409  and  _411
REMARK  171  A    between atoms: _411  and  _412
REMARK  172  A    between atoms: _411  and  _414
REMARK  173  A    between atoms: _414  and  _415
REMARK  174  A    between atoms: _418  and  _420
REMARK  175  A    between atoms: _420  and  _421
REMARK  176  A    between atoms: _423  and  _425
REMARK  177  A    between atoms: _425  and  _426
REMARK  178  A    between atoms: _428  and  _430
REMARK  179  A    between atoms: _430  and  _431
REMARK  180  A    between atoms: _430  and  _433
REMARK  181  A    between atoms: _433  and  _434
REMARK  182  A    between atoms: _437  and  _439
REMARK  183  A    between atoms: _439  and  _440
REMARK  184  A    between atoms: _442  and  _444
REMARK  185  A    between atoms: _444  and  _445
REMARK  186  A    between atoms: _447  and  _449
REMARK  187  A    between atoms: _449  and  _450
REMARK  188  A    between atoms: _449  and  _452
REMARK  189  A    between atoms: _452  and  _453
REMARK  190  A    between atoms: _459  and  _461
REMARK  191  A    between atoms: _461  and  _462
REMARK  192  A    between atoms: _461  and  _464
REMARK  193  A    between atoms: _464  and  _465
REMARK  194  A    between atoms: _468  and  _470
REMARK  195  A    between atoms: _470  and  _471
REMARK  196  A    between atoms: _470  and  _473
REMARK  197  A    between atoms: _473  and  _474
REMARK  198  A    between atoms: _477  and  _479
REMARK  199  A    between atoms: _479  and  _480
REMARK  200  A    between atoms: _479  and  _482
REMARK  201  A    between atoms: _482  and  _483
REMARK  202  A    between atoms: _487  and  _488
REMARK  203  A    between atoms: _493  and  _495
REMARK  204  A    between atoms: _495  and  _496
REMARK  205  A    between atoms: _495  and  _498
REMARK  206  A    between atoms: _501  and  _503
REMARK  207  A    between atoms: _503  and  _504
REMARK  208  A    between atoms: _503  and  _506
REMARK  209  A    between atoms: _506  and  _507
REMARK  210  A    between atoms: _512  and  _514
REMARK  211  A    between atoms: _514  and  _515
REMARK  212  A    between atoms: _514  and  _517
REMARK  213  A    between atoms: _517  and  _518
REMARK  214  A    between atoms: _521  and  _523
REMARK  215  A    between atoms: _523  and  _524
REMARK  216  A    between atoms: _523  and  _526
REMARK  217  A    between atoms: _526  and  _527
REMARK  218  A    between atoms: _530  and  _532
REMARK  219  A    between atoms: _532  and  _533
REMARK  220  A    between atoms: _535  and  _537
REMARK  221  A    between atoms: _537  and  _538
REMARK  222  A    between atoms: _537  and  _540
REMARK  223  A    between atoms: _540  and  _541
REMARK  224  A    between atoms: _541  and  _542
REMARK  225  A    between atoms: _542  and  _543
REMARK  226  A    between atoms: _552  and  _554
REMARK  227  A    between atoms: _554  and  _555
REMARK  228  A    between atoms: _554  and  _557
REMARK  229  A    between atoms: _557  and  _558
REMARK                            x       y       z     vdW  Elec       q    Type
REMARK                         _______ _______ _______ _____ _____    ______ ____
ROOT
ATOM      1  NE  ARG A   1      22.913  30.322  22.655  0.00  0.00    -0.265 N 
ATOM      2  CZ  ARG A   1      24.165  29.853  22.584  0.00  0.00    +0.342 C 
ATOM      3  NH2 ARG A   1      24.856  29.512  23.665  0.00  0.00    -0.292 N 
ATOM      4 HH21 ARG A   1      24.427  29.606  24.608  0.00  0.00    +0.255 HD
ATOM      5 HH22 ARG A   1      25.827  29.151  23.569  0.00  0.00    +0.255 HD
ATOM      6  NH1 ARG A   1      24.821  29.684  21.438  0.00  0.00    -0.292 N 
ATOM      7 HH11 ARG A   1      25.793  29.315  21.445  0.00  0.00    +0.255 HD
ATOM      8 HH12 ARG A   1      24.361  29.921  20.536  0.00  0.00    +0.255 HD
ATOM      9  HE  ARG A   1      22.443  30.558  21.758  0.00  0.00    +0.259 HD
ENDROOT
BRANCH   1  10
ATOM     10  CD  ARG A   1      22.143  30.533  23.893  0.00  0.00    +0.174 C 
BRANCH  10  11
ATOM     11  CG  ARG A   1      21.221  31.727  23.662  0.00  0.00    +0.045 C 
BRANCH  11  12
ATOM     12  CB  ARG A   1      20.492  32.062  24.940  0.00  0.00    +0.029 C 
BRANCH  12  13
ATOM     13  CA  ARG A   1      19.517  33.217  24.763  0.00  0.00    +0.133 C 
BRANCH  13  14
ATOM     14  N   ARG A   1      20.242  34.479  24.644  0.00  0.00    -0.239 NA
ATOM     15  H   ARG A   1      21.281  34.497  24.688  0.00  0.00    +0.142 HD
ENDBRANCH  13  14
BRANCH  13  16
ATOM     16  C   ARG A   1      18.585  33.249  25.941  0.00  0.00    +0.224 C 
ATOM     17  O   ARG A   1      19.017  33.711  27.021  0.00  0.00    -0.287 OA
ENDBRANCH  13  16
ENDBRANCH  12  13
ENDBRANCH  11  12
ENDBRANCH  10  11
ENDBRANCH   1  10
TORSDOF 6
REMARK  Name = ../refined-set-2016/2qci/2qci_pocket.pdb
REMARK  229 active torsions:
REMARK  status: ('A' for Active; 'I' for Inactive)
REMARK    1  A    between atoms: _1  and  _3
REMARK    2  A    between atoms: _3  and  _4
REMARK    3  A    between atoms: _3  and  _6
REMARK    4  A    between atoms: _6  and  _7
REMARK    5  A    between atoms: _7  and  _8
REMARK    6  A    between atoms: _8  and  _9
REMARK    7  A    between atoms: _18  and  _20
REMARK    8  A    between atoms: _20  and  _21
REMARK    9  A    between atoms: _20  and  _23
REMARK   10  A    between atoms: _23  and  _24
REMARK   11  A    between atoms: _27  and  _29
REMARK   12  A    between atoms: _29  and  _30
REMARK   13  A    between atoms: _29  and  _32
REMARK   14  A    between atoms: _32  and  _33
REMARK   15  A    between atoms: _36  and  _38
REMARK   16  A    between atoms: _38  and  _39
REMARK   17  A    between atoms: _38  and  _41
REMARK   18  A    between atoms: _41  and  _42
REMARK   19  A    between atoms: _45  and  _47
REMARK   20  A    between atoms: _47  and  _48
REMARK   21  A    between atoms: _47  and  _50
REMARK   22  A    between atoms: _50  and  _51
REMARK   23  A    between atoms: _54  and  _56
REMARK   24  A    between atoms: _56  and  _57
REMARK   25  A    between atoms: _59  and  _61
REMARK   26  A    between atoms: _61  and  _62
REMARK   27  A    between atoms: _65  and  _67
REMARK   28  A    between atoms: _67  and  _68
REMARK   29  A    between atoms: _67  and  _70
REMARK   30  A    between atoms: _70  and  _71
REMARK   31  A    between atoms: _74  and  _76
REMARK   32  A    between atoms: _76  and  _77
REMARK   33  A    between atoms: _76  and  _79
REMARK   34  A    between atoms: _79  and  _80
REMARK   35  A    between atoms: _85  and  _87
REMARK   36  A    between atoms: _87  and  _88
REMARK   37  A    between atoms: _87  and  _90
REMARK   38  A    between atoms: _90  and  _91
REMARK   39  A    between atoms: _94  and  _96
REMARK   40  A    between atoms: _96  and  _97
REMARK   41  A    between atoms: _96  and  _99
REMARK   42  A    between atoms: _102  and  _104
REMARK   43  A    between atoms: _104  and  _105
REMARK   44  A    between atoms: _104  and  _107
REMARK   45  A    between atoms: _107  and  _108
REMARK   46  A    between atoms: _108  and  _109
REMARK   47  A    between atoms: _109  and  _110
REMARK   48  A    between atoms: _110  and  _111
REMARK   49  A    between atoms: _115  and  _117
REMARK   50  A    between atoms: _117  and  _118
REMARK   51  A    between atoms: _117  and  _120
REMARK   52  A    between atoms: _120  and  _121
REMARK   53  A    between atoms: _121  and  _122
REMARK   54  A    between atoms: _124  and  _126
REMARK   55  A    between atoms: _126  and  _127
REMARK   56  A    between atoms: _126  and  _129
REMARK   57  A    between atoms: _129  and  _130
REMARK   58  A    between atoms: _133  and  _135
REMARK   59  A    between atoms: _135  and  _136
REMARK   60  A    between atoms: _138  and  _140
REMARK   61  A    between atoms: _140  and  _141
REMARK   62  A    between atoms: _143  and  _145
REMARK   63  A    between atoms: _145  and  _146
REMARK   64  A    between atoms: _145  and  _148
REMARK   65  A    between atoms: _148  and  _149
REMARK   66  A    between atoms: _152  and  _154
REMARK   67  A    between atoms: _154  and  _155
REMARK   68  A    between atoms: _157  and  _159
REMARK   69  A    between atoms: _159  and  _160
REMARK   70  A    between atoms: _162  and  _164
REMARK   71  A    between atoms: _164  and  _165
REMARK   72  A    between atoms: _164  and  _167
REMARK   73  A    between atoms: _167  and  _168
REMARK   74  A    between atoms: _174  and  _176
REMARK   75  A    between atoms: _176  and  _177
REMARK   76  A    between atoms: _176  and  _179
REMARK   77  A    between atoms: _179  and  _180
REMARK   78  A    between atoms: _183  and  _185
REMARK   79  A    between atoms: _185  and  _186
REMARK   80  A    between atoms: _185  and  _188
REMARK   81  A    between atoms: _191  and  _193
REMARK   82  A    between atoms: _193  and  _194
REMARK   83  A    between atoms: _193  and  _196
REMARK   84  A    between atoms: _196  and  _197
REMARK   85  A    between atoms: _200  and  _202
REMARK   86  A    between atoms: _202  and  _203
REMARK   87  A    between atoms: _202  and  _205
REMARK   88  A    between atoms: _205  and  _206
REMARK   89  A    between atoms: _210  and  _211
REMARK   90  A    between atoms: _216  and  _218
REMARK   91  A    between atoms: _218  and  _219
REMARK   92  A    between atoms: _218  and  _221
REMARK   93  A    between atoms: _224  and  _226
REMARK   94  A    between atoms: _226  and  _227
REMARK   95  A    between atoms: _226  and  _229
REMARK   96  A    between atoms: _229  and  _230
REMARK   97  A    between atoms: _235  and  _237
REMARK   98  A    between atoms: _237  and  _238
REMARK   99  A    between atoms: _237  and  _240
REMARK  100  A    between atoms: _240  and  _241
REMARK  101  A    between atoms: _244  and  _246
REMARK  102  A    between atoms: _246  and  _247
REMARK  103  A    between atoms: _246  and  _249
REMARK  104  A    between atoms: _249  and  _250
REMARK  105  A    between atoms: _253  and  _255
REMARK  106  A    between atoms: _255  and  _256
REMARK  107  A    between atoms: _258  and  _260
REMARK  108  A    between atoms: _260  and  _261
REMARK  109  A    between atoms: _260  and  _263
REMARK  110  A    between atoms: _263  and  _264
REMARK  111  A    between atoms: _264  and  _265
REMARK  112  A    between atoms: _265  and  _266
REMARK  113  A    between atoms: _275  and  _277
REMARK  114  A    between atoms: _277  and  _278
REMARK  115  A    between atoms: _277  and  _280
REMARK  116  A    between atoms: _280  and  _281
REMARK  117  A    between atoms: _286  and  _288
REMARK  118  A    between atoms: _288  and  _289
REMARK  119  A    between atoms: _288  and  _291
REMARK  120  A    between atoms: _291  and  _292
REMARK  121  A    between atoms: _292  and  _293
REMARK  122  A    between atoms: _293  and  _294
REMARK  123  A    between atoms: _303  and  _305
REMARK  124  A    between atoms: _305  and  _306
REMARK  125  A    between atoms: _305  and  _308
REMARK  126  A    between atoms: _308  and  _309
REMARK  127  A    between atoms: _312  and  _314
REMARK  128  A    between atoms: _314  and  _315
REMARK  129  A    between atoms: _314  and  _317
REMARK  130  A    between atoms: _317  and  _318
REMARK  131  A    between atoms: _321  and  _323
REMARK  132  A    between atoms: _323  and  _324
REMARK  133  A    between atoms: _323  and  _326
REMARK  134  A    between atoms: _326  and  _327
REMARK  135  A    between atoms: _330  and  _332
REMARK  136  A    between atoms: _332  and  _333
REMARK  137  A    between atoms: _332  and  _335
REMARK  138  A    between atoms: _335  and  _336
REMARK  139  A    between atoms: _339  and  _341
REMARK  140  A    between atoms: _341  and  _342
REMARK  141  A    between atoms: _344  and  _346
REMARK  142  A    between atoms: _346  and  _347
REMARK  143  A    between atoms: _350  and  _352
REMARK  144  A    between atoms: _352  and  _353
REMARK  145  A    between atoms: _352  and  _355
REMARK  146  A    between atoms: _355  and  _356
REMARK  147  A    between atoms: _359  and  _361
REMARK  148  A    between atoms: _361  and  _362
REMARK  149  A    between atoms: _361  and  _364
REMARK  150  A    between atoms: _364  and  _365
REMARK  151  A    between atoms: _370  and  _372
REMARK  152  A    between atoms: _372  and  _373
REMARK  153  A    between atoms: _372  and  _375
REMARK  154  A    between atoms: _375  and  _376
REMARK  155  A    between atoms: _379  and  _381
REMARK  156  A    between atoms: _381  and  _382
REMARK  157  A    between atoms: _381  and  _384
REMARK  158  A    between atoms: _387  and  _389
REMARK  159  A    between atoms: _389  and  _390
REMARK  160  A    between atoms: _389  and  _392
REMARK  161  A    between atoms: _392  and  _393
REMARK  162  A    between atoms: _393  and  _394
REMARK  163  A    between atoms: _394  and  _395
REMARK  164  A    between atoms: _395  and  _396
REMARK  165  A    between atoms: _400  and  _402
REMARK  166  A    between atoms: _402  and  _403
REMARK  167  A    between atoms: _402  and  _405
REMARK  168  A    between atoms: _405  and  _406
REMARK  169  A    between atoms: _406  and  _407
REMARK  170  A    between atoms: _409  and  _411
REMARK  171  A    between atoms: _411  and  _412
REMARK  172  A    between atoms: _411  and  _414
REMARK  173  A    between atoms: _414  and  _415
REMARK  174  A    between atoms: _418  and  _420
REMARK  175  A    between atoms: _420  and  _421
REMARK  176  A    between atoms: _423  and  _425
REMARK  177  A    between atoms: _425  and  _426
REMARK  178  A    between atoms: _428  and  _430
REMARK  179  A    between atoms: _430  and  _431
REMARK  180  A    between atoms: _430  and  _433
REMARK  181  A    between atoms: _433  and  _434
REMARK  182  A    between atoms: _437  and  _439
REMARK  183  A    between atoms: _439  and  _440
REMARK  184  A    between atoms: _442  and  _444
REMARK  185  A    between atoms: _444  and  _445
REMARK  186  A    between atoms: _447  and  _449
REMARK  187  A    between atoms: _449  and  _450
REMARK  188  A    between atoms: _449  and  _452
REMARK  189  A    between atoms: _452  and  _453
REMARK  190  A    between atoms: _459  and  _461
REMARK  191  A    between atoms: _461  and  _462
REMARK  192  A    between atoms: _461  and  _464
REMARK  193  A    between atoms: _464  and  _465
REMARK  194  A    between atoms: _468  and  _470
REMARK  195  A    between atoms: _470  and  _471
REMARK  196  A    between atoms: _470  and  _473
REMARK  197  A    between atoms: _473  and  _474
REMARK  198  A    between atoms: _477  and  _479
REMARK  199  A    between atoms: _479  and  _480
REMARK  200  A    between atoms: _479  and  _482
REMARK  201  A    between atoms: _482  and  _483
REMARK  202  A    between atoms: _487  and  _488
REMARK  203  A    between atoms: _493  and  _495
REMARK  204  A    between atoms: _495  and  _496
REMARK  205  A    between atoms: _495  and  _498
REMARK  206  A    between atoms: _501  and  _503
REMARK  207  A    between atoms: _503  and  _504
REMARK  208  A    between atoms: _503  and  _506
REMARK  209  A    between atoms: _506  and  _507
REMARK  210  A    between atoms: _512  and  _514
REMARK  211  A    between atoms: _514  and  _515
REMARK  212  A    between atoms: _514  and  _517
REMARK  213  A    between atoms: _517  and  _518
REMARK  214  A    between atoms: _521  and  _523
REMARK  215  A    between atoms: _523  and  _524
REMARK  216  A    between atoms: _523  and  _526
REMARK  217  A    between atoms: _526  and  _527
REMARK  218  A    between atoms: _530  and  _532
REMARK  219  A    between atoms: _532  and  _533
REMARK  220  A    between atoms: _535  and  _537
REMARK  221  A    between atoms: _537  and  _538
REMARK  222  A    between atoms: _537  and  _540
REMARK  223  A    between atoms: _540  and  _541
REMARK  224  A    between atoms: _541  and  _542
REMARK  225  A    between atoms: _542  and  _543
REMARK  226  A    between atoms: _552  and  _554
REMARK  227  A    between atoms: _554  and  _555
REMARK  228  A    between atoms: _554  and  _557
REMARK  229  A    between atoms: _557  and  _558
REMARK                            x       y       z     vdW  Elec       q    Type
REMARK                         _______ _______ _______ _____ _____    ______ ____
ROOT
ATOM      1  C   GLY A   5      10.980  24.000  18.699  0.00  0.00    +0.243 C 
ATOM      2  N   ALA A   6      10.919  23.629  19.958  0.00  0.00    -0.297 N 
ATOM      3  H   ALA A   6      10.838  24.384  20.669  0.00  0.00    +0.150 HD
ATOM      4  O   GLY A   5      11.156  23.161  17.801  0.00  0.00    -0.273 OA
ENDROOT
BRANCH   2   5
ATOM      5  CA  ALA A   6      10.954  22.273  20.446  0.00  0.00    +0.149 C 
ATOM      6  CB  ALA A   6      11.898  22.174  21.624  0.00  0.00    +0.031 C 
BRANCH   5   7
ATOM      7  C   ALA A   6       9.568  21.784  20.871  0.00  0.00    +0.241 C 
ATOM      8  O   ALA A   6       8.922  22.409  21.713  0.00  0.00    -0.273 OA
ATOM      9  N   ASP A   7       9.138  20.664  20.263  0.00  0.00    -0.297 N 
ATOM     10  H   ASP A   7       9.683  20.222  19.496  0.00  0.00    +0.150 HD
BRANCH   9  11
ATOM     11  CA  ASP A   7       7.891  20.101  20.718  0.00  0.00    +0.160 C 
BRANCH  11  12
ATOM     12  C   ASP A   7       8.005  19.548  22.135  0.00  0.00    +0.241 C 
ATOM     13  O   ASP A   7       7.062  19.599  22.911  0.00  0.00    -0.273 OA
ATOM     14  N   ASN A   8       9.170  19.006  22.436  0.00  0.00    -0.297 N 
ATOM     15  H   ASN A   8       9.940  19.162  21.755  0.00  0.00    +0.150 HD
BRANCH  14  16
ATOM     16  CA  ASN A   8       9.500  18.217  23.608  0.00  0.00    +0.158 C 
BRANCH  16  17
ATOM     17  C   ASN A   8      10.593  18.830  24.445  0.00  0.00    +0.241 C 
ATOM     18  N   THR A   9      10.646  18.528  25.714  0.00  0.00    -0.295 N 
ATOM     19  H   THR A   9       9.879  17.940  26.099  0.00  0.00    +0.150 HD
ATOM     20  O   ASN A   8      11.420  19.588  23.907  0.00  0.00    -0.273 OA
BRANCH  18  21
ATOM     21  CA  THR A   9      11.686  18.946  26.625  0.00  0.00    +0.176 C 
BRANCH  21  22
ATOM     22  C   THR A   9      12.769  17.890  26.641  0.00  0.00    +0.243 C 
ATOM     23  O   THR A   9      12.444  16.701  26.835  0.00  0.00    -0.273 OA
ATOM     24  N   VAL A  10      14.021  18.264  26.444  0.00  0.00    -0.298 N 
ATOM     25  H   VAL A  10      14.220  19.283  26.377  0.00  0.00    +0.150 HD
BRANCH  24  26
ATOM     26  CA  VAL A  10      15.133  17.346  26.315  0.00  0.00    +0.137 C 
BRANCH  26  27
ATOM     27  CB  VAL A  10      15.694  17.200  24.873  0.00  0.00    +0.026 C 
ATOM     28  CG2 VAL A  10      16.584  15.960  24.870  0.00  0.00    +0.002 C 
ATOM     29  CG1 VAL A  10      14.614  17.101  23.840  0.00  0.00    +0.002 C 
ENDBRANCH  26  27
BRANCH  26  30
ATOM     30  C   VAL A  10      16.260  17.831  27.241  0.00  0.00    +0.227 C 
ATOM     31  O   VAL A  10      16.681  18.963  27.096  0.00  0.00    -0.286 OA
ENDBRANCH  26  30
ENDBRANCH  24  26
ENDBRANCH  21  22
BRANCH  21  32
ATOM     32  CB  THR A   9      11.065  19.129  28.019  0.00  0.00    +0.137 C 
ATOM     33  CG2 THR A   9      12.075  19.392  29.122  0.00  0.00    +0.034 C 
BRANCH  32  34
ATOM     34  OG1 THR A   9      10.156  20.275  27.912  0.00  0.00    -0.382 OA
ATOM     35  HG1 THR A   9       9.461  20.081  27.234  0.00  0.00    +0.210 HD
ENDBRANCH  32  34
ENDBRANCH  21  32
ENDBRANCH  18  21
ENDBRANCH  16  17
BRANCH  16  36
ATOM     36  CB  ASN A   8       9.998  16.826  23.185  0.00  0.00    +0.114 C 
BRANCH  36  37
ATOM     37  CG  ASN A   8       9.226  16.218  22.059  0.00  0.00    +0.222 C 
ATOM     38  OD1 ASN A   8       8.033  15.928  22.154  0.00  0.00    -0.275 OA
ATOM     39  ND2 ASN A   8       9.845  15.984  20.924  0.00  0.00    -0.329 N 
ATOM     40 HD21 ASN A   8      10.852  16.221  20.823  0.00  0.00    +0.145 HD
ATOM     41 HD22 ASN A   8       9.328  15.561  20.127  0.00  0.00    +0.145 HD
ENDBRANCH  36  37
ENDBRANCH  16  36
ENDBRANCH  14  16
ENDBRANCH  11  12
BRANCH  11  42
ATOM     42  CB  ASP A   7       7.455  18.949  19.807  0.00  0.00    +0.143 C 
BRANCH  42  43
ATOM     43  CG  ASP A   7       7.226  19.258  18.351  0.00  0.00    +0.367 C 
ATOM     44  OD2 ASP A   7       7.025  20.433  17.952  0.00  0.00    -0.246 OA
ATOM     45  OD1 ASP A   7       7.249  18.243  17.564  0.00  0.00    -0.246 OA
ENDBRANCH  42  43
ENDBRANCH  11  42
ENDBRANCH   9  11
ENDBRANCH   5   7
ENDBRANCH   2   5
BRANCH   1  46
ATOM     46  CA  GLY A   5      10.838  25.465  18.338  0.00  0.00    +0.176 C 
BRANCH  46  49
ATOM     47  C   THR A   4       9.502  26.587  20.016  0.00  0.00    +0.243 C 
ATOM     48  O   THR A   4       8.431  26.124  19.561  0.00  0.00    -0.273 OA
ATOM     49  N   GLY A   5      10.668  26.351  19.471  0.00  0.00    -0.295 N 
ATOM     50  H   GLY A   5      11.508  26.819  19.868  0.00  0.00    +0.150 HD
BRANCH  47  51
ATOM     51  CA  THR A   4       9.433  27.459  21.273  0.00  0.00    +0.176 C 
BRANCH  51  54
ATOM     52  C   ASP A   3      11.288  26.548  22.523  0.00  0.00    +0.241 C 
ATOM     53  O   ASP A   3      10.756  25.426  22.506  0.00  0.00    -0.273 OA
ATOM     54  N   THR A   4      10.703  27.589  21.912  0.00  0.00    -0.295 N 
ATOM     55  H   THR A   4      11.185  28.511  21.904  0.00  0.00    +0.150 HD
BRANCH  52  56
ATOM     56  CA  ASP A   3      12.616  26.819  23.205  0.00  0.00    +0.160 C 
BRANCH  56  58
ATOM     57  C   LEU A   2      13.078  28.146  25.168  0.00  0.00    +0.241 C 
ATOM     58  N   ASP A   3      12.522  27.084  24.617  0.00  0.00    -0.297 N 
ATOM     59  H   ASP A   3      12.000  26.418  25.221  0.00  0.00    +0.150 HD
ATOM     60  O   LEU A   2      13.489  29.105  24.492  0.00  0.00    -0.273 OA
BRANCH  57  61
ATOM     61  CA  LEU A   2      13.196  28.177  26.678  0.00  0.00    +0.149 C 
BRANCH  61  63
ATOM     62  C   LEU A   1      15.317  27.058  26.927  0.00  0.00    +0.238 C 
ATOM     63  N   LEU A   2      14.606  28.164  27.043  0.00  0.00    -0.297 N 
ATOM     64  H   LEU A   2      15.056  29.032  27.397  0.00  0.00    +0.150 HD
ATOM     65  O   LEU A   1      14.812  25.956  26.613  0.00  0.00    -0.274 OA
BRANCH  62  66
ATOM     66  CA  LEU A   1      16.802  27.149  27.180  0.00  0.00    +0.145 C 
BRANCH  66  67
ATOM     67  N   LEU A   1      17.218  26.214  28.212  0.00  0.00    -0.238 NA
ATOM     68  H   LEU A   1      17.415  25.233  27.927  0.00  0.00    +0.142 HD
ENDBRANCH  66  67
BRANCH  66  69
ATOM     69  CB  LEU A   1      17.623  26.804  25.934  0.00  0.00    +0.026 C 
BRANCH  69  70
ATOM     70  CG  LEU A   1      17.451  27.605  24.685  0.00  0.00    +0.002 C 
ATOM     71  CD2 LEU A   1      17.975  29.005  24.924  0.00  0.00    +0.000 C 
ATOM     72  CD1 LEU A   1      18.200  26.960  23.542  0.00  0.00    +0.000 C 
ENDBRANCH  69  70
ENDBRANCH  66  69
ENDBRANCH  62  66
ENDBRANCH  61  63
BRANCH  61  73
ATOM     73  CB  LEU A   2      12.483  29.396  27.262  0.00  0.00    +0.029 C 
BRANCH  73  74
ATOM     74  CG  LEU A   2      12.556  29.523  28.785  0.00  0.00    +0.002 C 
ATOM     75  CD2 LEU A   2      11.998  28.308  29.498  0.00  0.00    +0.000 C 
ATOM     76  CD1 LEU A   2      11.797  30.764  29.268  0.00  0.00    +0.000 C 
ENDBRANCH  73  74
ENDBRANCH  61  73
ENDBRANCH  57  61
ENDBRANCH  56  58
BRANCH  56  77
ATOM     77  CB  ASP A   3      13.482  25.595  23.064  0.00  0.00    +0.143 C 
BRANCH  77  78
ATOM     78  CG  ASP A   3      13.924  25.345  21.645  0.00  0.00    +0.367 C 
ATOM     79  OD2 ASP A   3      14.780  24.458  21.435  0.00  0.00    -0.246 OA
ATOM     80  OD1 ASP A   3      13.408  26.071  20.751  0.00  0.00    -0.246 OA
ENDBRANCH  77  78
ENDBRANCH  56  77
ENDBRANCH  52  56
ENDBRANCH  51  54
BRANCH  51  81
ATOM     81  CB  THR A   4       8.855  28.844  20.880  0.00  0.00    +0.137 C 
ATOM     82  CG2 THR A   4       8.626  29.712  22.116  0.00  0.00    +0.034 C 
BRANCH  81  83
ATOM     83  OG1 THR A   4       9.754  29.528  20.019  0.00  0.00    -0.382 OA
ATOM     84  HG1 THR A   4       9.896  28.992  19.199  0.00  0.00    +0.210 HD
ENDBRANCH  81  83
ENDBRANCH  51  81
ENDBRANCH  47  51
ENDBRANCH  46  49
ENDBRANCH   1  46
TORSDOF 35
REMARK  Name = ../refined-set-2016/2qci/2qci_pocket.pdb
REMARK  229 active torsions:
REMARK  status: ('A' for Active; 'I' for Inactive)
REMARK    1  A    between atoms: _1  and  _3
REMARK    2  A    between atoms: _3  and  _4
REMARK    3  A    between atoms: _3  and  _6
REMARK    4  A    between atoms: _6  and  _7
REMARK    5  A    between atoms: _7  and  _8
REMARK    6  A    between atoms: _8  and  _9
REMARK    7  A    between atoms: _18  and  _20
REMARK    8  A    between atoms: _20  and  _21
REMARK    9  A    between atoms: _20  and  _23
REMARK   10  A    between atoms: _23  and  _24
REMARK   11  A    between atoms: _27  and  _29
REMARK   12  A    between atoms: _29  and  _30
REMARK   13  A    between atoms: _29  and  _32
REMARK   14  A    between atoms: _32  and  _33
REMARK   15  A    between atoms: _36  and  _38
REMARK   16  A    between atoms: _38  and  _39
REMARK   17  A    between atoms: _38  and  _41
REMARK   18  A    between atoms: _41  and  _42
REMARK   19  A    between atoms: _45  and  _47
REMARK   20  A    between atoms: _47  and  _48
REMARK   21  A    between atoms: _47  and  _50
REMARK   22  A    between atoms: _50  and  _51
REMARK   23  A    between atoms: _54  and  _56
REMARK   24  A    between atoms: _56  and  _57
REMARK   25  A    between atoms: _59  and  _61
REMARK   26  A    between atoms: _61  and  _62
REMARK   27  A    between atoms: _65  and  _67
REMARK   28  A    between atoms: _67  and  _68
REMARK   29  A    between atoms: _67  and  _70
REMARK   30  A    between atoms: _70  and  _71
REMARK   31  A    between atoms: _74  and  _76
REMARK   32  A    between atoms: _76  and  _77
REMARK   33  A    between atoms: _76  and  _79
REMARK   34  A    between atoms: _79  and  _80
REMARK   35  A    between atoms: _85  and  _87
REMARK   36  A    between atoms: _87  and  _88
REMARK   37  A    between atoms: _87  and  _90
REMARK   38  A    between atoms: _90  and  _91
REMARK   39  A    between atoms: _94  and  _96
REMARK   40  A    between atoms: _96  and  _97
REMARK   41  A    between atoms: _96  and  _99
REMARK   42  A    between atoms: _102  and  _104
REMARK   43  A    between atoms: _104  and  _105
REMARK   44  A    between atoms: _104  and  _107
REMARK   45  A    between atoms: _107  and  _108
REMARK   46  A    between atoms: _108  and  _109
REMARK   47  A    between atoms: _109  and  _110
REMARK   48  A    between atoms: _110  and  _111
REMARK   49  A    between atoms: _115  and  _117
REMARK   50  A    between atoms: _117  and  _118
REMARK   51  A    between atoms: _117  and  _120
REMARK   52  A    between atoms: _120  and  _121
REMARK   53  A    between atoms: _121  and  _122
REMARK   54  A    between atoms: _124  and  _126
REMARK   55  A    between atoms: _126  and  _127
REMARK   56  A    between atoms: _126  and  _129
REMARK   57  A    between atoms: _129  and  _130
REMARK   58  A    between atoms: _133  and  _135
REMARK   59  A    between atoms: _135  and  _136
REMARK   60  A    between atoms: _138  and  _140
REMARK   61  A    between atoms: _140  and  _141
REMARK   62  A    between atoms: _143  and  _145
REMARK   63  A    between atoms: _145  and  _146
REMARK   64  A    between atoms: _145  and  _148
REMARK   65  A    between atoms: _148  and  _149
REMARK   66  A    between atoms: _152  and  _154
REMARK   67  A    between atoms: _154  and  _155
REMARK   68  A    between atoms: _157  and  _159
REMARK   69  A    between atoms: _159  and  _160
REMARK   70  A    between atoms: _162  and  _164
REMARK   71  A    between atoms: _164  and  _165
REMARK   72  A    between atoms: _164  and  _167
REMARK   73  A    between atoms: _167  and  _168
REMARK   74  A    between atoms: _174  and  _176
REMARK   75  A    between atoms: _176  and  _177
REMARK   76  A    between atoms: _176  and  _179
REMARK   77  A    between atoms: _179  and  _180
REMARK   78  A    between atoms: _183  and  _185
REMARK   79  A    between atoms: _185  and  _186
REMARK   80  A    between atoms: _185  and  _188
REMARK   81  A    between atoms: _191  and  _193
REMARK   82  A    between atoms: _193  and  _194
REMARK   83  A    between atoms: _193  and  _196
REMARK   84  A    between atoms: _196  and  _197
REMARK   85  A    between atoms: _200  and  _202
REMARK   86  A    between atoms: _202  and  _203
REMARK   87  A    between atoms: _202  and  _205
REMARK   88  A    between atoms: _205  and  _206
REMARK   89  A    between atoms: _210  and  _211
REMARK   90  A    between atoms: _216  and  _218
REMARK   91  A    between atoms: _218  and  _219
REMARK   92  A    between atoms: _218  and  _221
REMARK   93  A    between atoms: _224  and  _226
REMARK   94  A    between atoms: _226  and  _227
REMARK   95  A    between atoms: _226  and  _229
REMARK   96  A    between atoms: _229  and  _230
REMARK   97  A    between atoms: _235  and  _237
REMARK   98  A    between atoms: _237  and  _238
REMARK   99  A    between atoms: _237  and  _240
REMARK  100  A    between atoms: _240  and  _241
REMARK  101  A    between atoms: _244  and  _246
REMARK  102  A    between atoms: _246  and  _247
REMARK  103  A    between atoms: _246  and  _249
REMARK  104  A    between atoms: _249  and  _250
REMARK  105  A    between atoms: _253  and  _255
REMARK  106  A    between atoms: _255  and  _256
REMARK  107  A    between atoms: _258  and  _260
REMARK  108  A    between atoms: _260  and  _261
REMARK  109  A    between atoms: _260  and  _263
REMARK  110  A    between atoms: _263  and  _264
REMARK  111  A    between atoms: _264  and  _265
REMARK  112  A    between atoms: _265  and  _266
REMARK  113  A    between atoms: _275  and  _277
REMARK  114  A    between atoms: _277  and  _278
REMARK  115  A    between atoms: _277  and  _280
REMARK  116  A    between atoms: _280  and  _281
REMARK  117  A    between atoms: _286  and  _288
REMARK  118  A    between atoms: _288  and  _289
REMARK  119  A    between atoms: _288  and  _291
REMARK  120  A    between atoms: _291  and  _292
REMARK  121  A    between atoms: _292  and  _293
REMARK  122  A    between atoms: _293  and  _294
REMARK  123  A    between atoms: _303  and  _305
REMARK  124  A    between atoms: _305  and  _306
REMARK  125  A    between atoms: _305  and  _308
REMARK  126  A    between atoms: _308  and  _309
REMARK  127  A    between atoms: _312  and  _314
REMARK  128  A    between atoms: _314  and  _315
REMARK  129  A    between atoms: _314  and  _317
REMARK  130  A    between atoms: _317  and  _318
REMARK  131  A    between atoms: _321  and  _323
REMARK  132  A    between atoms: _323  and  _324
REMARK  133  A    between atoms: _323  and  _326
REMARK  134  A    between atoms: _326  and  _327
REMARK  135  A    between atoms: _330  and  _332
REMARK  136  A    between atoms: _332  and  _333
REMARK  137  A    between atoms: _332  and  _335
REMARK  138  A    between atoms: _335  and  _336
REMARK  139  A    between atoms: _339  and  _341
REMARK  140  A    between atoms: _341  and  _342
REMARK  141  A    between atoms: _344  and  _346
REMARK  142  A    between atoms: _346  and  _347
REMARK  143  A    between atoms: _350  and  _352
REMARK  144  A    between atoms: _352  and  _353
REMARK  145  A    between atoms: _352  and  _355
REMARK  146  A    between atoms: _355  and  _356
REMARK  147  A    between atoms: _359  and  _361
REMARK  148  A    between atoms: _361  and  _362
REMARK  149  A    between atoms: _361  and  _364
REMARK  150  A    between atoms: _364  and  _365
REMARK  151  A    between atoms: _370  and  _372
REMARK  152  A    between atoms: _372  and  _373
REMARK  153  A    between atoms: _372  and  _375
REMARK  154  A    between atoms: _375  and  _376
REMARK  155  A    between atoms: _379  and  _381
REMARK  156  A    between atoms: _381  and  _382
REMARK  157  A    between atoms: _381  and  _384
REMARK  158  A    between atoms: _387  and  _389
REMARK  159  A    between atoms: _389  and  _390
REMARK  160  A    between atoms: _389  and  _392
REMARK  161  A    between atoms: _392  and  _393
REMARK  162  A    between atoms: _393  and  _394
REMARK  163  A    between atoms: _394  and  _395
REMARK  164  A    between atoms: _395  and  _396
REMARK  165  A    between atoms: _400  and  _402
REMARK  166  A    between atoms: _402  and  _403
REMARK  167  A    between atoms: _402  and  _405
REMARK  168  A    between atoms: _405  and  _406
REMARK  169  A    between atoms: _406  and  _407
REMARK  170  A    between atoms: _409  and  _411
REMARK  171  A    between atoms: _411  and  _412
REMARK  172  A    between atoms: _411  and  _414
REMARK  173  A    between atoms: _414  and  _415
REMARK  174  A    between atoms: _418  and  _420
REMARK  175  A    between atoms: _420  and  _421
REMARK  176  A    between atoms: _423  and  _425
REMARK  177  A    between atoms: _425  and  _426
REMARK  178  A    between atoms: _428  and  _430
REMARK  179  A    between atoms: _430  and  _431
REMARK  180  A    between atoms: _430  and  _433
REMARK  181  A    between atoms: _433  and  _434
REMARK  182  A    between atoms: _437  and  _439
REMARK  183  A    between atoms: _439  and  _440
REMARK  184  A    between atoms: _442  and  _444
REMARK  185  A    between atoms: _444  and  _445
REMARK  186  A    between atoms: _447  and  _449
REMARK  187  A    between atoms: _449  and  _450
REMARK  188  A    between atoms: _449  and  _452
REMARK  189  A    between atoms: _452  and  _453
REMARK  190  A    between atoms: _459  and  _461
REMARK  191  A    between atoms: _461  and  _462
REMARK  192  A    between atoms: _461  and  _464
REMARK  193  A    between atoms: _464  and  _465
REMARK  194  A    between atoms: _468  and  _470
REMARK  195  A    between atoms: _470  and  _471
REMARK  196  A    between atoms: _470  and  _473
REMARK  197  A    between atoms: _473  and  _474
REMARK  198  A    between atoms: _477  and  _479
REMARK  199  A    between atoms: _479  and  _480
REMARK  200  A    between atoms: _479  and  _482
REMARK  201  A    between atoms: _482  and  _483
REMARK  202  A    between atoms: _487  and  _488
REMARK  203  A    between atoms: _493  and  _495
REMARK  204  A    between atoms: _495  and  _496
REMARK  205  A    between atoms: _495  and  _498
REMARK  206  A    between atoms: _501  and  _503
REMARK  207  A    between atoms: _503  and  _504
REMARK  208  A    between atoms: _503  and  _506
REMARK  209  A    between atoms: _506  and  _507
REMARK  210  A    between atoms: _512  and  _514
REMARK  211  A    between atoms: _514  and  _515
REMARK  212  A    between atoms: _514  and  _517
REMARK  213  A    between atoms: _517  and  _518
REMARK  214  A    between atoms: _521  and  _523
REMARK  215  A    between atoms: _523  and  _524
REMARK  216  A    between atoms: _523  and  _526
REMARK  217  A    between atoms: _526  and  _527
REMARK  218  A    between atoms: _530  and  _532
REMARK  219  A    between atoms: _532  and  _533
REMARK  220  A    between atoms: _535  and  _537
REMARK  221  A    between atoms: _537  and  _538
REMARK  222  A    between atoms: _537  and  _540
REMARK  223  A    between atoms: _540  and  _541
REMARK  224  A    between atoms: _541  and  _542
REMARK  225  A    between atoms: _542  and  _543
REMARK  226  A    between atoms: _552  and  _554
REMARK  227  A    between atoms: _554  and  _555
REMARK  228  A    between atoms: _554  and  _557
REMARK  229  A    between atoms: _557  and  _558
REMARK                            x       y       z     vdW  Elec       q    Type
REMARK                         _______ _______ _______ _____ _____    ______ ____
ROOT
ATOM      1  C   GLY A   5      17.289  18.334  13.804  0.00  0.00    +0.243 C 
ATOM      2  N   ILE A   6      18.055  19.418  13.919  0.00  0.00    -0.297 N 
ATOM      3  H   ILE A   6      18.244  19.843  14.849  0.00  0.00    +0.150 HD
ATOM      4  O   GLY A   5      17.245  17.684  12.756  0.00  0.00    -0.273 OA
ENDROOT
BRANCH   2   5
ATOM      5  CA  ILE A   6      18.614  19.984  12.720  0.00  0.00    +0.149 C 
BRANCH   5   6
ATOM      6  C   ILE A   6      19.565  19.006  12.082  0.00  0.00    +0.241 C 
ATOM      7  N   GLY A   7      20.259  18.166  12.815  0.00  0.00    -0.295 N 
ATOM      8  H   GLY A   7      20.072  18.079  13.834  0.00  0.00    +0.150 HD
ATOM      9  O   ILE A   6      19.623  19.012  10.861  0.00  0.00    -0.273 OA
BRANCH   7  10
ATOM     10  CA  GLY A   7      21.299  17.353  12.180  0.00  0.00    +0.176 C 
BRANCH  10  11
ATOM     11  C   GLY A   7      20.921  15.929  11.922  0.00  0.00    +0.243 C 
ATOM     12  N   GLY A   8      19.700  15.611  12.286  0.00  0.00    -0.295 N 
ATOM     13  H   GLY A   8      19.073  16.350  12.663  0.00  0.00    +0.150 HD
ATOM     14  O   GLY A   7      21.692  15.095  11.399  0.00  0.00    -0.273 OA
BRANCH  12  15
ATOM     15  CA  GLY A   8      19.207  14.251  12.173  0.00  0.00    +0.176 C 
BRANCH  15  16
ATOM     16  C   GLY A   8      18.530  13.796  13.453  0.00  0.00    +0.243 C 
ATOM     17  O   GLY A   8      18.249  14.576  14.336  0.00  0.00    -0.273 OA
ATOM     18  N   PHE A   9      18.273  12.498  13.501  0.00  0.00    -0.297 N 
ATOM     19  H   PHE A   9      18.554  11.885  12.709  0.00  0.00    +0.150 HD
BRANCH  18  20
ATOM     20  CA  PHE A   9      17.601  11.925  14.655  0.00  0.00    +0.153 C 
BRANCH  20  21
ATOM     21  C   PHE A   9      18.527  11.389  15.714  0.00  0.00    +0.241 C 
ATOM     22  N   ILE A  10      17.999  11.364  16.919  0.00  0.00    -0.298 N 
ATOM     23  H   ILE A  10      17.084  11.833  17.072  0.00  0.00    +0.150 HD
ATOM     24  O   PHE A   9      19.682  10.976  15.524  0.00  0.00    -0.273 OA
BRANCH  22  25
ATOM     25  CA  ILE A  10      18.644  10.706  18.048  0.00  0.00    +0.137 C 
BRANCH  25  26
ATOM     26  C   ILE A  10      17.605   9.913  18.827  0.00  0.00    +0.227 C 
ATOM     27  O   ILE A  10      16.424  10.244  18.792  0.00  0.00    -0.286 OA
ENDBRANCH  25  26
BRANCH  25  28
ATOM     28  CB  ILE A  10      19.315  11.705  18.990  0.00  0.00    +0.026 C 
ATOM     29  CG2 ILE A  10      20.408  12.460  18.212  0.00  0.00    +0.002 C 
BRANCH  28  30
ATOM     30  CG1 ILE A  10      18.359  12.665  19.681  0.00  0.00    +0.002 C 
ATOM     31  CD1 ILE A  10      18.846  13.427  20.903  0.00  0.00    +0.000 C 
ENDBRANCH  28  30
ENDBRANCH  25  28
ENDBRANCH  22  25
ENDBRANCH  20  21
BRANCH  20  32
ATOM     32  CB  PHE A   9      16.729  10.775  14.128  0.00  0.00    +0.055 C 
BRANCH  32  33
ATOM     33  CG  PHE A   9      15.470  11.300  13.464  0.00  0.00    -0.020 A 
ATOM     34  CD2 PHE A   9      14.260  11.259  14.128  0.00  0.00    -0.004 A 
ATOM     35  CE2 PHE A   9      13.124  11.744  13.518  0.00  0.00    -0.000 A 
ATOM     36  CZ  PHE A   9      13.158  12.281  12.244  0.00  0.00    -0.000 A 
ATOM     37  CE1 PHE A   9      14.370  12.319  11.583  0.00  0.00    -0.000 A 
ATOM     38  CD1 PHE A   9      15.530  11.830  12.186  0.00  0.00    -0.004 A 
ENDBRANCH  32  33
ENDBRANCH  20  32
ENDBRANCH  18  20
ENDBRANCH  15  16
ENDBRANCH  12  15
ENDBRANCH  10  11
ENDBRANCH   7  10
ENDBRANCH   5   6
BRANCH   5  39
ATOM     39  CB  ILE A   6      19.300  21.359  13.010  0.00  0.00    +0.027 C 
ATOM     40  CG2 ILE A   6      20.757  21.402  13.348  0.00  0.00    +0.002 C 
BRANCH  39  41
ATOM     41  CG1 ILE A   6      19.013  22.267  11.797  0.00  0.00    +0.002 C 
ATOM     42  CD1 ILE A   6      19.233  23.729  12.081  0.00  0.00    +0.000 C 
ENDBRANCH  39  41
ENDBRANCH   5  39
ENDBRANCH   2   5
BRANCH   1  43
ATOM     43  CA  GLY A   5      16.534  17.963  15.061  0.00  0.00    +0.176 C 
BRANCH  43  46
ATOM     44  C   GLY A   4      14.944  16.208  15.064  0.00  0.00    +0.243 C 
ATOM     45  O   GLY A   4      14.082  17.071  15.224  0.00  0.00    -0.273 OA
ATOM     46  N   GLY A   5      16.204  16.554  15.028  0.00  0.00    -0.295 N 
ATOM     47  H   GLY A   5      16.952  15.833  14.977  0.00  0.00    +0.150 HD
BRANCH  44  48
ATOM     48  CA  GLY A   4      14.616  14.765  14.899  0.00  0.00    +0.176 C 
BRANCH  48  51
ATOM     49  C   ILE A   3      14.466  13.452  16.968  0.00  0.00    +0.241 C 
ATOM     50  O   ILE A   3      15.632  13.036  16.942  0.00  0.00    -0.273 OA
ATOM     51  N   GLY A   4      13.947  14.306  16.105  0.00  0.00    -0.295 N 
ATOM     52  H   GLY A   4      12.995  14.675  16.302  0.00  0.00    +0.150 HD
BRANCH  49  53
ATOM     53  CA  ILE A   3      13.505  12.983  18.043  0.00  0.00    +0.149 C 
BRANCH  53  55
ATOM     54  C   MET A   2      12.869  10.653  18.320  0.00  0.00    +0.241 C 
ATOM     55  N   ILE A   3      13.842  11.579  18.357  0.00  0.00    -0.297 N 
ATOM     56  H   ILE A   3      14.817  11.312  18.603  0.00  0.00    +0.150 HD
ATOM     57  O   MET A   2      11.686  10.869  18.108  0.00  0.00    -0.273 OA
BRANCH  54  58
ATOM     58  CA  MET A   2      13.287   9.213  18.548  0.00  0.00    +0.149 C 
BRANCH  58  61
ATOM     59  C   LYS A   1      12.721   8.256  20.694  0.00  0.00    +0.238 C 
ATOM     60  O   LYS A   1      13.860   8.250  21.113  0.00  0.00    -0.274 OA
ATOM     61  N   MET A   2      12.387   8.597  19.495  0.00  0.00    -0.297 N 
ATOM     62  H   MET A   2      11.409   8.417  19.192  0.00  0.00    +0.150 HD
BRANCH  59  63
ATOM     63  CA  LYS A   1      11.548   7.843  21.592  0.00  0.00    +0.145 C 
BRANCH  63  64
ATOM     64  N   LYS A   1      12.019   6.781  22.457  0.00  0.00    -0.238 NA
ATOM     65  H   LYS A   1      13.033   6.727  22.683  0.00  0.00    +0.142 HD
ENDBRANCH  63  64
BRANCH  63  66
ATOM     66  CB  LYS A   1      11.031   9.026  22.374  0.00  0.00    +0.026 C 
BRANCH  66  67
ATOM     67  CG  LYS A   1      10.306  10.066  21.508  0.00  0.00    -0.000 C 
BRANCH  67  68
ATOM     68  CD  LYS A   1       9.508  11.037  22.273  0.00  0.00    -0.024 C 
BRANCH  68  69
ATOM     69  CE  LYS A   1       8.941  12.103  21.381  0.00  0.00    -0.086 C 
BRANCH  69  70
ATOM     70  NZ  LYS A   1       7.755  11.658  20.618  0.00  0.00    +0.380 N 
ATOM     71  HZ1 LYS A   1       7.006  11.372  21.280  0.00  0.00    -0.089 HD
ATOM     72  HZ2 LYS A   1       7.414  12.440  20.023  0.00  0.00    -0.089 HD
ATOM     73  HZ3 LYS A   1       8.014  10.851  20.016  0.00  0.00    -0.089 HD
ENDBRANCH  69  70
ENDBRANCH  68  69
ENDBRANCH  67  68
ENDBRANCH  66  67
ENDBRANCH  63  66
ENDBRANCH  59  63
ENDBRANCH  58  61
BRANCH  58  74
ATOM     74  CB  MET A   2      13.252   8.514  17.191  0.00  0.00    +0.041 C 
BRANCH  74  75
ATOM     75  CG  MET A   2      13.693   7.063  17.236  0.00  0.00    +0.060 C 
BRANCH  75  76
ATOM     76  SD  MET A   2      15.479   6.999  16.942  0.00  0.00    -0.139 S 
ATOM     77  CE  MET A   2      15.483   7.521  15.226  0.00  0.00    +0.069 C 
ENDBRANCH  75  76
ENDBRANCH  74  75
ENDBRANCH  58  74
ENDBRANCH  54  58
ENDBRANCH  53  55
BRANCH  53  78
ATOM     78  CB  ILE A   3      13.549  13.921  19.261  0.00  0.00    +0.027 C 
ATOM     79  CG2 ILE A   3      12.434  13.554  20.215  0.00  0.00    +0.002 C 
BRANCH  78  80
ATOM     80  CG1 ILE A   3      14.920  13.962  19.946  0.00  0.00    +0.002 C 
ATOM     81  CD1 ILE A   3      14.941  14.897  21.141  0.00  0.00    +0.000 C 
ENDBRANCH  78  80
ENDBRANCH  53  78
ENDBRANCH  49  53
ENDBRANCH  48  51
ENDBRANCH  44  48
ENDBRANCH  43  46
ENDBRANCH   1  43
TORSDOF 36
REMARK  Name = ../refined-set-2016/2qci/2qci_pocket.pdb
REMARK  229 active torsions:
REMARK  status: ('A' for Active; 'I' for Inactive)
REMARK    1  A    between atoms: _1  and  _3
REMARK    2  A    between atoms: _3  and  _4
REMARK    3  A    between atoms: _3  and  _6
REMARK    4  A    between atoms: _6  and  _7
REMARK    5  A    between atoms: _7  and  _8
REMARK    6  A    between atoms: _8  and  _9
REMARK    7  A    between atoms: _18  and  _20
REMARK    8  A    between atoms: _20  and  _21
REMARK    9  A    between atoms: _20  and  _23
REMARK   10  A    between atoms: _23  and  _24
REMARK   11  A    between atoms: _27  and  _29
REMARK   12  A    between atoms: _29  and  _30
REMARK   13  A    between atoms: _29  and  _32
REMARK   14  A    between atoms: _32  and  _33
REMARK   15  A    between atoms: _36  and  _38
REMARK   16  A    between atoms: _38  and  _39
REMARK   17  A    between atoms: _38  and  _41
REMARK   18  A    between atoms: _41  and  _42
REMARK   19  A    between atoms: _45  and  _47
REMARK   20  A    between atoms: _47  and  _48
REMARK   21  A    between atoms: _47  and  _50
REMARK   22  A    between atoms: _50  and  _51
REMARK   23  A    between atoms: _54  and  _56
REMARK   24  A    between atoms: _56  and  _57
REMARK   25  A    between atoms: _59  and  _61
REMARK   26  A    between atoms: _61  and  _62
REMARK   27  A    between atoms: _65  and  _67
REMARK   28  A    between atoms: _67  and  _68
REMARK   29  A    between atoms: _67  and  _70
REMARK   30  A    between atoms: _70  and  _71
REMARK   31  A    between atoms: _74  and  _76
REMARK   32  A    between atoms: _76  and  _77
REMARK   33  A    between atoms: _76  and  _79
REMARK   34  A    between atoms: _79  and  _80
REMARK   35  A    between atoms: _85  and  _87
REMARK   36  A    between atoms: _87  and  _88
REMARK   37  A    between atoms: _87  and  _90
REMARK   38  A    between atoms: _90  and  _91
REMARK   39  A    between atoms: _94  and  _96
REMARK   40  A    between atoms: _96  and  _97
REMARK   41  A    between atoms: _96  and  _99
REMARK   42  A    between atoms: _102  and  _104
REMARK   43  A    between atoms: _104  and  _105
REMARK   44  A    between atoms: _104  and  _107
REMARK   45  A    between atoms: _107  and  _108
REMARK   46  A    between atoms: _108  and  _109
REMARK   47  A    between atoms: _109  and  _110
REMARK   48  A    between atoms: _110  and  _111
REMARK   49  A    between atoms: _115  and  _117
REMARK   50  A    between atoms: _117  and  _118
REMARK   51  A    between atoms: _117  and  _120
REMARK   52  A    between atoms: _120  and  _121
REMARK   53  A    between atoms: _121  and  _122
REMARK   54  A    between atoms: _124  and  _126
REMARK   55  A    between atoms: _126  and  _127
REMARK   56  A    between atoms: _126  and  _129
REMARK   57  A    between atoms: _129  and  _130
REMARK   58  A    between atoms: _133  and  _135
REMARK   59  A    between atoms: _135  and  _136
REMARK   60  A    between atoms: _138  and  _140
REMARK   61  A    between atoms: _140  and  _141
REMARK   62  A    between atoms: _143  and  _145
REMARK   63  A    between atoms: _145  and  _146
REMARK   64  A    between atoms: _145  and  _148
REMARK   65  A    between atoms: _148  and  _149
REMARK   66  A    between atoms: _152  and  _154
REMARK   67  A    between atoms: _154  and  _155
REMARK   68  A    between atoms: _157  and  _159
REMARK   69  A    between atoms: _159  and  _160
REMARK   70  A    between atoms: _162  and  _164
REMARK   71  A    between atoms: _164  and  _165
REMARK   72  A    between atoms: _164  and  _167
REMARK   73  A    between atoms: _167  and  _168
REMARK   74  A    between atoms: _174  and  _176
REMARK   75  A    between atoms: _176  and  _177
REMARK   76  A    between atoms: _176  and  _179
REMARK   77  A    between atoms: _179  and  _180
REMARK   78  A    between atoms: _183  and  _185
REMARK   79  A    between atoms: _185  and  _186
REMARK   80  A    between atoms: _185  and  _188
REMARK   81  A    between atoms: _191  and  _193
REMARK   82  A    between atoms: _193  and  _194
REMARK   83  A    between atoms: _193  and  _196
REMARK   84  A    between atoms: _196  and  _197
REMARK   85  A    between atoms: _200  and  _202
REMARK   86  A    between atoms: _202  and  _203
REMARK   87  A    between atoms: _202  and  _205
REMARK   88  A    between atoms: _205  and  _206
REMARK   89  A    between atoms: _210  and  _211
REMARK   90  A    between atoms: _216  and  _218
REMARK   91  A    between atoms: _218  and  _219
REMARK   92  A    between atoms: _218  and  _221
REMARK   93  A    between atoms: _224  and  _226
REMARK   94  A    between atoms: _226  and  _227
REMARK   95  A    between atoms: _226  and  _229
REMARK   96  A    between atoms: _229  and  _230
REMARK   97  A    between atoms: _235  and  _237
REMARK   98  A    between atoms: _237  and  _238
REMARK   99  A    between atoms: _237  and  _240
REMARK  100  A    between atoms: _240  and  _241
REMARK  101  A    between atoms: _244  and  _246
REMARK  102  A    between atoms: _246  and  _247
REMARK  103  A    between atoms: _246  and  _249
REMARK  104  A    between atoms: _249  and  _250
REMARK  105  A    between atoms: _253  and  _255
REMARK  106  A    between atoms: _255  and  _256
REMARK  107  A    between atoms: _258  and  _260
REMARK  108  A    between atoms: _260  and  _261
REMARK  109  A    between atoms: _260  and  _263
REMARK  110  A    between atoms: _263  and  _264
REMARK  111  A    between atoms: _264  and  _265
REMARK  112  A    between atoms: _265  and  _266
REMARK  113  A    between atoms: _275  and  _277
REMARK  114  A    between atoms: _277  and  _278
REMARK  115  A    between atoms: _277  and  _280
REMARK  116  A    between atoms: _280  and  _281
REMARK  117  A    between atoms: _286  and  _288
REMARK  118  A    between atoms: _288  and  _289
REMARK  119  A    between atoms: _288  and  _291
REMARK  120  A    between atoms: _291  and  _292
REMARK  121  A    between atoms: _292  and  _293
REMARK  122  A    between atoms: _293  and  _294
REMARK  123  A    between atoms: _303  and  _305
REMARK  124  A    between atoms: _305  and  _306
REMARK  125  A    between atoms: _305  and  _308
REMARK  126  A    between atoms: _308  and  _309
REMARK  127  A    between atoms: _312  and  _314
REMARK  128  A    between atoms: _314  and  _315
REMARK  129  A    between atoms: _314  and  _317
REMARK  130  A    between atoms: _317  and  _318
REMARK  131  A    between atoms: _321  and  _323
REMARK  132  A    between atoms: _323  and  _324
REMARK  133  A    between atoms: _323  and  _326
REMARK  134  A    between atoms: _326  and  _327
REMARK  135  A    between atoms: _330  and  _332
REMARK  136  A    between atoms: _332  and  _333
REMARK  137  A    between atoms: _332  and  _335
REMARK  138  A    between atoms: _335  and  _336
REMARK  139  A    between atoms: _339  and  _341
REMARK  140  A    between atoms: _341  and  _342
REMARK  141  A    between atoms: _344  and  _346
REMARK  142  A    between atoms: _346  and  _347
REMARK  143  A    between atoms: _350  and  _352
REMARK  144  A    between atoms: _352  and  _353
REMARK  145  A    between atoms: _352  and  _355
REMARK  146  A    between atoms: _355  and  _356
REMARK  147  A    between atoms: _359  and  _361
REMARK  148  A    between atoms: _361  and  _362
REMARK  149  A    between atoms: _361  and  _364
REMARK  150  A    between atoms: _364  and  _365
REMARK  151  A    between atoms: _370  and  _372
REMARK  152  A    between atoms: _372  and  _373
REMARK  153  A    between atoms: _372  and  _375
REMARK  154  A    between atoms: _375  and  _376
REMARK  155  A    between atoms: _379  and  _381
REMARK  156  A    between atoms: _381  and  _382
REMARK  157  A    between atoms: _381  and  _384
REMARK  158  A    between atoms: _387  and  _389
REMARK  159  A    between atoms: _389  and  _390
REMARK  160  A    between atoms: _389  and  _392
REMARK  161  A    between atoms: _392  and  _393
REMARK  162  A    between atoms: _393  and  _394
REMARK  163  A    between atoms: _394  and  _395
REMARK  164  A    between atoms: _395  and  _396
REMARK  165  A    between atoms: _400  and  _402
REMARK  166  A    between atoms: _402  and  _403
REMARK  167  A    between atoms: _402  and  _405
REMARK  168  A    between atoms: _405  and  _406
REMARK  169  A    between atoms: _406  and  _407
REMARK  170  A    between atoms: _409  and  _411
REMARK  171  A    between atoms: _411  and  _412
REMARK  172  A    between atoms: _411  and  _414
REMARK  173  A    between atoms: _414  and  _415
REMARK  174  A    between atoms: _418  and  _420
REMARK  175  A    between atoms: _420  and  _421
REMARK  176  A    between atoms: _423  and  _425
REMARK  177  A    between atoms: _425  and  _426
REMARK  178  A    between atoms: _428  and  _430
REMARK  179  A    between atoms: _430  and  _431
REMARK  180  A    between atoms: _430  and  _433
REMARK  181  A    between atoms: _433  and  _434
REMARK  182  A    between atoms: _437  and  _439
REMARK  183  A    between atoms: _439  and  _440
REMARK  184  A    between atoms: _442  and  _444
REMARK  185  A    between atoms: _444  and  _445
REMARK  186  A    between atoms: _447  and  _449
REMARK  187  A    between atoms: _449  and  _450
REMARK  188  A    between atoms: _449  and  _452
REMARK  189  A    between atoms: _452  and  _453
REMARK  190  A    between atoms: _459  and  _461
REMARK  191  A    between atoms: _461  and  _462
REMARK  192  A    between atoms: _461  and  _464
REMARK  193  A    between atoms: _464  and  _465
REMARK  194  A    between atoms: _468  and  _470
REMARK  195  A    between atoms: _470  and  _471
REMARK  196  A    between atoms: _470  and  _473
REMARK  197  A    between atoms: _473  and  _474
REMARK  198  A    between atoms: _477  and  _479
REMARK  199  A    between atoms: _479  and  _480
REMARK  200  A    between atoms: _479  and  _482
REMARK  201  A    between atoms: _482  and  _483
REMARK  202  A    between atoms: _487  and  _488
REMARK  203  A    between atoms: _493  and  _495
REMARK  204  A    between atoms: _495  and  _496
REMARK  205  A    between atoms: _495  and  _498
REMARK  206  A    between atoms: _501  and  _503
REMARK  207  A    between atoms: _503  and  _504
REMARK  208  A    between atoms: _503  and  _506
REMARK  209  A    between atoms: _506  and  _507
REMARK  210  A    between atoms: _512  and  _514
REMARK  211  A    between atoms: _514  and  _515
REMARK  212  A    between atoms: _514  and  _517
REMARK  213  A    between atoms: _517  and  _518
REMARK  214  A    between atoms: _521  and  _523
REMARK  215  A    between atoms: _523  and  _524
REMARK  216  A    between atoms: _523  and  _526
REMARK  217  A    between atoms: _526  and  _527
REMARK  218  A    between atoms: _530  and  _532
REMARK  219  A    between atoms: _532  and  _533
REMARK  220  A    between atoms: _535  and  _537
REMARK  221  A    between atoms: _537  and  _538
REMARK  222  A    between atoms: _537  and  _540
REMARK  223  A    between atoms: _540  and  _541
REMARK  224  A    between atoms: _541  and  _542
REMARK  225  A    between atoms: _542  and  _543
REMARK  226  A    between atoms: _552  and  _554
REMARK  227  A    between atoms: _554  and  _555
REMARK  228  A    between atoms: _554  and  _557
REMARK  229  A    between atoms: _557  and  _558
REMARK                            x       y       z     vdW  Elec       q    Type
REMARK                         _______ _______ _______ _____ _____    ______ ____
ROOT
ATOM      1  CA  LEU A   1      13.334  13.300  27.432  0.00  0.00    +0.133 C 
ENDROOT
BRANCH   1   2
ATOM      2  N   LEU A   1      12.472  14.149  28.236  0.00  0.00    -0.239 NA
ATOM      3  H   LEU A   1      12.330  15.136  27.940  0.00  0.00    +0.142 HD
ENDBRANCH   1   2
BRANCH   1   4
ATOM      4  C   LEU A   1      14.789  13.468  27.875  0.00  0.00    +0.224 C 
ATOM      5  O   LEU A   1      15.231  14.596  28.098  0.00  0.00    -0.287 OA
ENDBRANCH   1   4
BRANCH   1   6
ATOM      6  CB  LEU A   1      13.201  13.615  25.951  0.00  0.00    +0.025 C 
BRANCH   6   7
ATOM      7  CG  LEU A   1      11.762  13.639  25.395  0.00  0.00    +0.002 C 
ATOM      8  CD2 LEU A   1      11.019  12.337  25.713  0.00  0.00    +0.000 C 
ATOM      9  CD1 LEU A   1      11.797  13.939  23.910  0.00  0.00    +0.000 C 
ENDBRANCH   6   7
ENDBRANCH   1   6
TORSDOF 4
REMARK  Name = ../refined-set-2016/2qci/2qci_pocket.pdb
REMARK  229 active torsions:
REMARK  status: ('A' for Active; 'I' for Inactive)
REMARK    1  A    between atoms: _1  and  _3
REMARK    2  A    between atoms: _3  and  _4
REMARK    3  A    between atoms: _3  and  _6
REMARK    4  A    between atoms: _6  and  _7
REMARK    5  A    between atoms: _7  and  _8
REMARK    6  A    between atoms: _8  and  _9
REMARK    7  A    between atoms: _18  and  _20
REMARK    8  A    between atoms: _20  and  _21
REMARK    9  A    between atoms: _20  and  _23
REMARK   10  A    between atoms: _23  and  _24
REMARK   11  A    between atoms: _27  and  _29
REMARK   12  A    between atoms: _29  and  _30
REMARK   13  A    between atoms: _29  and  _32
REMARK   14  A    between atoms: _32  and  _33
REMARK   15  A    between atoms: _36  and  _38
REMARK   16  A    between atoms: _38  and  _39
REMARK   17  A    between atoms: _38  and  _41
REMARK   18  A    between atoms: _41  and  _42
REMARK   19  A    between atoms: _45  and  _47
REMARK   20  A    between atoms: _47  and  _48
REMARK   21  A    between atoms: _47  and  _50
REMARK   22  A    between atoms: _50  and  _51
REMARK   23  A    between atoms: _54  and  _56
REMARK   24  A    between atoms: _56  and  _57
REMARK   25  A    between atoms: _59  and  _61
REMARK   26  A    between atoms: _61  and  _62
REMARK   27  A    between atoms: _65  and  _67
REMARK   28  A    between atoms: _67  and  _68
REMARK   29  A    between atoms: _67  and  _70
REMARK   30  A    between atoms: _70  and  _71
REMARK   31  A    between atoms: _74  and  _76
REMARK   32  A    between atoms: _76  and  _77
REMARK   33  A    between atoms: _76  and  _79
REMARK   34  A    between atoms: _79  and  _80
REMARK   35  A    between atoms: _85  and  _87
REMARK   36  A    between atoms: _87  and  _88
REMARK   37  A    between atoms: _87  and  _90
REMARK   38  A    between atoms: _90  and  _91
REMARK   39  A    between atoms: _94  and  _96
REMARK   40  A    between atoms: _96  and  _97
REMARK   41  A    between atoms: _96  and  _99
REMARK   42  A    between atoms: _102  and  _104
REMARK   43  A    between atoms: _104  and  _105
REMARK   44  A    between atoms: _104  and  _107
REMARK   45  A    between atoms: _107  and  _108
REMARK   46  A    between atoms: _108  and  _109
REMARK   47  A    between atoms: _109  and  _110
REMARK   48  A    between atoms: _110  and  _111
REMARK   49  A    between atoms: _115  and  _117
REMARK   50  A    between atoms: _117  and  _118
REMARK   51  A    between atoms: _117  and  _120
REMARK   52  A    between atoms: _120  and  _121
REMARK   53  A    between atoms: _121  and  _122
REMARK   54  A    between atoms: _124  and  _126
REMARK   55  A    between atoms: _126  and  _127
REMARK   56  A    between atoms: _126  and  _129
REMARK   57  A    between atoms: _129  and  _130
REMARK   58  A    between atoms: _133  and  _135
REMARK   59  A    between atoms: _135  and  _136
REMARK   60  A    between atoms: _138  and  _140
REMARK   61  A    between atoms: _140  and  _141
REMARK   62  A    between atoms: _143  and  _145
REMARK   63  A    between atoms: _145  and  _146
REMARK   64  A    between atoms: _145  and  _148
REMARK   65  A    between atoms: _148  and  _149
REMARK   66  A    between atoms: _152  and  _154
REMARK   67  A    between atoms: _154  and  _155
REMARK   68  A    between atoms: _157  and  _159
REMARK   69  A    between atoms: _159  and  _160
REMARK   70  A    between atoms: _162  and  _164
REMARK   71  A    between atoms: _164  and  _165
REMARK   72  A    between atoms: _164  and  _167
REMARK   73  A    between atoms: _167  and  _168
REMARK   74  A    between atoms: _174  and  _176
REMARK   75  A    between atoms: _176  and  _177
REMARK   76  A    between atoms: _176  and  _179
REMARK   77  A    between atoms: _179  and  _180
REMARK   78  A    between atoms: _183  and  _185
REMARK   79  A    between atoms: _185  and  _186
REMARK   80  A    between atoms: _185  and  _188
REMARK   81  A    between atoms: _191  and  _193
REMARK   82  A    between atoms: _193  and  _194
REMARK   83  A    between atoms: _193  and  _196
REMARK   84  A    between atoms: _196  and  _197
REMARK   85  A    between atoms: _200  and  _202
REMARK   86  A    between atoms: _202  and  _203
REMARK   87  A    between atoms: _202  and  _205
REMARK   88  A    between atoms: _205  and  _206
REMARK   89  A    between atoms: _210  and  _211
REMARK   90  A    between atoms: _216  and  _218
REMARK   91  A    between atoms: _218  and  _219
REMARK   92  A    between atoms: _218  and  _221
REMARK   93  A    between atoms: _224  and  _226
REMARK   94  A    between atoms: _226  and  _227
REMARK   95  A    between atoms: _226  and  _229
REMARK   96  A    between atoms: _229  and  _230
REMARK   97  A    between atoms: _235  and  _237
REMARK   98  A    between atoms: _237  and  _238
REMARK   99  A    between atoms: _237  and  _240
REMARK  100  A    between atoms: _240  and  _241
REMARK  101  A    between atoms: _244  and  _246
REMARK  102  A    between atoms: _246  and  _247
REMARK  103  A    between atoms: _246  and  _249
REMARK  104  A    between atoms: _249  and  _250
REMARK  105  A    between atoms: _253  and  _255
REMARK  106  A    between atoms: _255  and  _256
REMARK  107  A    between atoms: _258  and  _260
REMARK  108  A    between atoms: _260  and  _261
REMARK  109  A    between atoms: _260  and  _263
REMARK  110  A    between atoms: _263  and  _264
REMARK  111  A    between atoms: _264  and  _265
REMARK  112  A    between atoms: _265  and  _266
REMARK  113  A    between atoms: _275  and  _277
REMARK  114  A    between atoms: _277  and  _278
REMARK  115  A    between atoms: _277  and  _280
REMARK  116  A    between atoms: _280  and  _281
REMARK  117  A    between atoms: _286  and  _288
REMARK  118  A    between atoms: _288  and  _289
REMARK  119  A    between atoms: _288  and  _291
REMARK  120  A    between atoms: _291  and  _292
REMARK  121  A    between atoms: _292  and  _293
REMARK  122  A    between atoms: _293  and  _294
REMARK  123  A    between atoms: _303  and  _305
REMARK  124  A    between atoms: _305  and  _306
REMARK  125  A    between atoms: _305  and  _308
REMARK  126  A    between atoms: _308  and  _309
REMARK  127  A    between atoms: _312  and  _314
REMARK  128  A    between atoms: _314  and  _315
REMARK  129  A    between atoms: _314  and  _317
REMARK  130  A    between atoms: _317  and  _318
REMARK  131  A    between atoms: _321  and  _323
REMARK  132  A    between atoms: _323  and  _324
REMARK  133  A    between atoms: _323  and  _326
REMARK  134  A    between atoms: _326  and  _327
REMARK  135  A    between atoms: _330  and  _332
REMARK  136  A    between atoms: _332  and  _333
REMARK  137  A    between atoms: _332  and  _335
REMARK  138  A    between atoms: _335  and  _336
REMARK  139  A    between atoms: _339  and  _341
REMARK  140  A    between atoms: _341  and  _342
REMARK  141  A    between atoms: _344  and  _346
REMARK  142  A    between atoms: _346  and  _347
REMARK  143  A    between atoms: _350  and  _352
REMARK  144  A    between atoms: _352  and  _353
REMARK  145  A    between atoms: _352  and  _355
REMARK  146  A    between atoms: _355  and  _356
REMARK  147  A    between atoms: _359  and  _361
REMARK  148  A    between atoms: _361  and  _362
REMARK  149  A    between atoms: _361  and  _364
REMARK  150  A    between atoms: _364  and  _365
REMARK  151  A    between atoms: _370  and  _372
REMARK  152  A    between atoms: _372  and  _373
REMARK  153  A    between atoms: _372  and  _375
REMARK  154  A    between atoms: _375  and  _376
REMARK  155  A    between atoms: _379  and  _381
REMARK  156  A    between atoms: _381  and  _382
REMARK  157  A    between atoms: _381  and  _384
REMARK  158  A    between atoms: _387  and  _389
REMARK  159  A    between atoms: _389  and  _390
REMARK  160  A    between atoms: _389  and  _392
REMARK  161  A    between atoms: _392  and  _393
REMARK  162  A    between atoms: _393  and  _394
REMARK  163  A    between atoms: _394  and  _395
REMARK  164  A    between atoms: _395  and  _396
REMARK  165  A    between atoms: _400  and  _402
REMARK  166  A    between atoms: _402  and  _403
REMARK  167  A    between atoms: _402  and  _405
REMARK  168  A    between atoms: _405  and  _406
REMARK  169  A    between atoms: _406  and  _407
REMARK  170  A    between atoms: _409  and  _411
REMARK  171  A    between atoms: _411  and  _412
REMARK  172  A    between atoms: _411  and  _414
REMARK  173  A    between atoms: _414  and  _415
REMARK  174  A    between atoms: _418  and  _420
REMARK  175  A    between atoms: _420  and  _421
REMARK  176  A    between atoms: _423  and  _425
REMARK  177  A    between atoms: _425  and  _426
REMARK  178  A    between atoms: _428  and  _430
REMARK  179  A    between atoms: _430  and  _431
REMARK  180  A    between atoms: _430  and  _433
REMARK  181  A    between atoms: _433  and  _434
REMARK  182  A    between atoms: _437  and  _439
REMARK  183  A    between atoms: _439  and  _440
REMARK  184  A    between atoms: _442  and  _444
REMARK  185  A    between atoms: _444  and  _445
REMARK  186  A    between atoms: _447  and  _449
REMARK  187  A    between atoms: _449  and  _450
REMARK  188  A    between atoms: _449  and  _452
REMARK  189  A    between atoms: _452  and  _453
REMARK  190  A    between atoms: _459  and  _461
REMARK  191  A    between atoms: _461  and  _462
REMARK  192  A    between atoms: _461  and  _464
REMARK  193  A    between atoms: _464  and  _465
REMARK  194  A    between atoms: _468  and  _470
REMARK  195  A    between atoms: _470  and  _471
REMARK  196  A    between atoms: _470  and  _473
REMARK  197  A    between atoms: _473  and  _474
REMARK  198  A    between atoms: _477  and  _479
REMARK  199  A    between atoms: _479  and  _480
REMARK  200  A    between atoms: _479  and  _482
REMARK  201  A    between atoms: _482  and  _483
REMARK  202  A    between atoms: _487  and  _488
REMARK  203  A    between atoms: _493  and  _495
REMARK  204  A    between atoms: _495  and  _496
REMARK  205  A    between atoms: _495  and  _498
REMARK  206  A    between atoms: _501  and  _503
REMARK  207  A    between atoms: _503  and  _504
REMARK  208  A    between atoms: _503  and  _506
REMARK  209  A    between atoms: _506  and  _507
REMARK  210  A    between atoms: _512  and  _514
REMARK  211  A    between atoms: _514  and  _515
REMARK  212  A    between atoms: _514  and  _517
REMARK  213  A    between atoms: _517  and  _518
REMARK  214  A    between atoms: _521  and  _523
REMARK  215  A    between atoms: _523  and  _524
REMARK  216  A    between atoms: _523  and  _526
REMARK  217  A    between atoms: _526  and  _527
REMARK  218  A    between atoms: _530  and  _532
REMARK  219  A    between atoms: _532  and  _533
REMARK  220  A    between atoms: _535  and  _537
REMARK  221  A    between atoms: _537  and  _538
REMARK  222  A    between atoms: _537  and  _540
REMARK  223  A    between atoms: _540  and  _541
REMARK  224  A    between atoms: _541  and  _542
REMARK  225  A    between atoms: _542  and  _543
REMARK  226  A    between atoms: _552  and  _554
REMARK  227  A    between atoms: _554  and  _555
REMARK  228  A    between atoms: _554  and  _557
REMARK  229  A    between atoms: _557  and  _558
REMARK                            x       y       z     vdW  Elec       q    Type
REMARK                         _______ _______ _______ _____ _____    ______ ____
ROOT
ATOM      1  C   ILE A   5      14.446  22.290  26.881  0.00  0.00    +0.241 C 
ATOM      2  N   ILE A   6      13.732  23.371  27.187  0.00  0.00    -0.297 N 
ATOM      3  H   ILE A   6      14.187  24.302  27.097  0.00  0.00    +0.150 HD
ATOM      4  O   ILE A   5      14.056  21.146  27.089  0.00  0.00    -0.273 OA
ENDROOT
BRANCH   1   5
ATOM      5  CA  ILE A   5      15.817  22.553  26.255  0.00  0.00    +0.149 C 
BRANCH   5   8
ATOM      6  C   ASN A   4      17.908  22.393  27.459  0.00  0.00    +0.241 C 
ATOM      7  O   ASN A   4      18.111  23.618  27.464  0.00  0.00    -0.273 OA
ATOM      8  N   ILE A   5      16.855  21.775  26.945  0.00  0.00    -0.297 N 
ATOM      9  H   ILE A   5      16.763  20.743  27.030  0.00  0.00    +0.150 HD
BRANCH   6  10
ATOM     10  CA  ASN A   4      18.951  21.475  28.086  0.00  0.00    +0.158 C 
BRANCH  10  12
ATOM     11  C   VAL A   3      20.546  21.603  26.306  0.00  0.00    +0.241 C 
ATOM     12  N   ASN A   4      20.259  21.843  27.560  0.00  0.00    -0.297 N 
ATOM     13  H   ASN A   4      20.962  22.295  28.179  0.00  0.00    +0.150 HD
ATOM     14  O   VAL A   3      19.804  20.954  25.573  0.00  0.00    -0.273 OA
BRANCH  11  15
ATOM     15  CA  VAL A   3      21.851  22.164  25.783  0.00  0.00    +0.149 C 
BRANCH  15  18
ATOM     16  C   PRO A   2      23.498  20.957  24.393  0.00  0.00    +0.241 C 
ATOM     17  O   PRO A   2      24.467  21.481  24.966  0.00  0.00    -0.273 OA
ATOM     18  N   VAL A   3      22.270  21.253  24.721  0.00  0.00    -0.297 N 
ATOM     19  H   VAL A   3      21.515  20.795  24.172  0.00  0.00    +0.150 HD
BRANCH  16  23
ATOM     20  C   THR A   1      22.347  18.079  23.817  0.00  0.00    +0.244 C 
ATOM     21  O   THR A   1      23.004  17.956  24.867  0.00  0.00    -0.273 OA
ATOM     22  N   PRO A   2      22.670  19.031  22.949  0.00  0.00    -0.272 N 
ATOM     23  CA  PRO A   2      23.757  19.965  23.273  0.00  0.00    +0.152 C 
ATOM     24  CB  PRO A   2      23.870  20.792  21.982  0.00  0.00    +0.031 C 
ATOM     25  CG  PRO A   2      22.503  20.710  21.370  0.00  0.00    +0.024 C 
ATOM     26  CD  PRO A   2      22.059  19.287  21.623  0.00  0.00    +0.094 C 
BRANCH  20  27
ATOM     27  CA  THR A   1      21.175  17.125  23.523  0.00  0.00    +0.172 C 
BRANCH  27  28
ATOM     28  N   THR A   1      21.541  15.825  24.053  0.00  0.00    -0.236 NA
ATOM     29  H   THR A   1      21.248  15.576  25.019  0.00  0.00    +0.142 HD
ENDBRANCH  27  28
BRANCH  27  30
ATOM     30  CB  THR A   1      19.854  17.648  24.094  0.00  0.00    +0.135 C 
ATOM     31  CG2 THR A   1      19.793  17.728  25.606  0.00  0.00    +0.034 C 
BRANCH  30  32
ATOM     32  OG1 THR A   1      19.738  19.006  23.638  0.00  0.00    -0.383 OA
ATOM     33  HG1 THR A   1      20.507  19.532  23.973  0.00  0.00    +0.210 HD
ENDBRANCH  30  32
ENDBRANCH  27  30
ENDBRANCH  20  27
ENDBRANCH  16  23
ENDBRANCH  15  18
BRANCH  15  34
ATOM     34  CB  VAL A   3      21.604  23.628  25.390  0.00  0.00    +0.027 C 
ATOM     35  CG2 VAL A   3      21.300  24.555  26.570  0.00  0.00    +0.002 C 
ATOM     36  CG1 VAL A   3      20.413  23.777  24.445  0.00  0.00    +0.002 C 
ENDBRANCH  15  34
ENDBRANCH  11  15
ENDBRANCH  10  12
BRANCH  10  37
ATOM     37  CB  ASN A   4      18.923  21.586  29.584  0.00  0.00    +0.114 C 
BRANCH  37  38
ATOM     38  CG  ASN A   4      19.894  20.725  30.331  0.00  0.00    +0.222 C 
ATOM     39  ND2 ASN A   4      20.487  21.237  31.384  0.00  0.00    -0.329 N 
ATOM     40 HD21 ASN A   4      21.176  20.671  31.920  0.00  0.00    +0.145 HD
ATOM     41 HD22 ASN A   4      20.268  22.209  31.683  0.00  0.00    +0.145 HD
ATOM     42  OD1 ASN A   4      20.115  19.593  29.940  0.00  0.00    -0.275 OA
ENDBRANCH  37  38
ENDBRANCH  10  37
ENDBRANCH   6  10
ENDBRANCH   5   8
BRANCH   5  43
ATOM     43  CB  ILE A   5      15.819  22.314  24.726  0.00  0.00    +0.027 C 
ATOM     44  CG2 ILE A   5      17.180  22.809  24.184  0.00  0.00    +0.002 C 
BRANCH  43  45
ATOM     45  CG1 ILE A   5      15.574  20.935  24.191  0.00  0.00    +0.002 C 
ATOM     46  CD1 ILE A   5      15.460  20.830  22.680  0.00  0.00    +0.000 C 
ENDBRANCH  43  45
ENDBRANCH   5  43
ENDBRANCH   1   5
BRANCH   2  47
ATOM     47  CA  ILE A   6      12.358  23.324  27.638  0.00  0.00    +0.149 C 
BRANCH  47  48
ATOM     48  C   ILE A   6      11.489  23.565  26.424  0.00  0.00    +0.241 C 
ATOM     49  N   GLY A   7      10.751  22.524  25.996  0.00  0.00    -0.295 N 
ATOM     50  H   GLY A   7      10.820  21.630  26.522  0.00  0.00    +0.150 HD
ATOM     51  O   ILE A   6      11.469  24.655  25.848  0.00  0.00    -0.273 OA
BRANCH  49  52
ATOM     52  CA  GLY A   7       9.874  22.568  24.860  0.00  0.00    +0.176 C 
BRANCH  52  53
ATOM     53  C   GLY A   7       8.434  22.880  25.179  0.00  0.00    +0.243 C 
ATOM     54  O   GLY A   7       8.086  23.120  26.336  0.00  0.00    -0.273 OA
ATOM     55  N   ARG A   8       7.605  22.849  24.130  0.00  0.00    -0.297 N 
ATOM     56  H   ARG A   8       7.923  22.477  23.212  0.00  0.00    +0.150 HD
BRANCH  55  57
ATOM     57  CA  ARG A   8       6.241  23.350  24.301  0.00  0.00    +0.149 C 
BRANCH  57  58
ATOM     58  C   ARG A   8       5.416  22.534  25.267  0.00  0.00    +0.241 C 
ATOM     59  O   ARG A   8       4.507  23.093  25.889  0.00  0.00    -0.273 OA
ATOM     60  N   ASN A   9       5.736  21.234  25.421  0.00  0.00    -0.298 N 
ATOM     61  H   ASN A   9       6.511  20.801  24.879  0.00  0.00    +0.150 HD
BRANCH  60  62
ATOM     62  CA  ASN A   9       4.952  20.453  26.380  0.00  0.00    +0.146 C 
BRANCH  62  63
ATOM     63  C   ASN A   9       5.009  21.057  27.781  0.00  0.00    +0.227 C 
ATOM     64  O   ASN A   9       3.998  20.965  28.513  0.00  0.00    -0.286 OA
ENDBRANCH  62  63
BRANCH  62  65
ATOM     65  CB  ASN A   9       5.426  19.001  26.435  0.00  0.00    +0.112 C 
BRANCH  65  66
ATOM     66  CG  ASN A   9       6.768  18.800  27.077  0.00  0.00    +0.222 C 
ATOM     67  ND2 ASN A   9       6.768  17.884  28.066  0.00  0.00    -0.329 N 
ATOM     68 HD21 ASN A   9       7.650  17.665  28.572  0.00  0.00    +0.145 HD
ATOM     69 HD22 ASN A   9       5.886  17.397  28.323  0.00  0.00    +0.145 HD
ATOM     70  OD1 ASN A   9       7.749  19.430  26.696  0.00  0.00    -0.275 OA
ENDBRANCH  65  66
ENDBRANCH  62  65
ENDBRANCH  60  62
ENDBRANCH  57  58
BRANCH  57  71
ATOM     71  CB  ARG A   8       5.554  23.417  22.920  0.00  0.00    +0.033 C 
BRANCH  71  72
ATOM     72  CG  ARG A   8       6.176  24.449  21.990  0.00  0.00    +0.045 C 
BRANCH  72  73
ATOM     73  CD  ARG A   8       5.377  24.645  20.689  0.00  0.00    +0.174 C 
BRANCH  73  74
ATOM     74  NE  ARG A   8       5.379  23.418  19.914  0.00  0.00    -0.265 N 
ATOM     75  CZ  ARG A   8       4.420  22.499  19.898  0.00  0.00    +0.342 C 
ATOM     76  NH2 ARG A   8       3.284  22.593  20.604  0.00  0.00    -0.292 N 
ATOM     77 HH21 ARG A   8       3.115  23.422  21.209  0.00  0.00    +0.255 HD
ATOM     78 HH22 ARG A   8       2.572  21.837  20.547  0.00  0.00    +0.255 HD
ATOM     79  NH1 ARG A   8       4.614  21.429  19.132  0.00  0.00    -0.292 N 
ATOM     80 HH11 ARG A   8       3.891  20.683  19.088  0.00  0.00    +0.255 HD
ATOM     81 HH12 ARG A   8       5.489  21.338  18.577  0.00  0.00    +0.255 HD
ATOM     82  HE  ARG A   8       6.210  23.241  19.314  0.00  0.00    +0.259 HD
ENDBRANCH  73  74
ENDBRANCH  72  73
ENDBRANCH  71  72
ENDBRANCH  57  71
ENDBRANCH  55  57
ENDBRANCH  52  53
ENDBRANCH  49  52
ENDBRANCH  47  48
BRANCH  47  83
ATOM     83  CB  ILE A   6      12.094  24.350  28.756  0.00  0.00    +0.027 C 
ATOM     84  CG2 ILE A   6      10.628  24.223  29.182  0.00  0.00    +0.002 C 
BRANCH  83  85
ATOM     85  CG1 ILE A   6      13.098  24.257  29.902  0.00  0.00    +0.002 C 
ATOM     86  CD1 ILE A   6      13.200  22.874  30.501  0.00  0.00    +0.000 C 
ENDBRANCH  83  85
ENDBRANCH  47  83
ENDBRANCH   2  47
TORSDOF 32
REMARK  Name = ../refined-set-2016/2qci/2qci_pocket.pdb
REMARK  229 active torsions:
REMARK  status: ('A' for Active; 'I' for Inactive)
REMARK    1  A    between atoms: _1  and  _3
REMARK    2  A    between atoms: _3  and  _4
REMARK    3  A    between atoms: _3  and  _6
REMARK    4  A    between atoms: _6  and  _7
REMARK    5  A    between atoms: _7  and  _8
REMARK    6  A    between atoms: _8  and  _9
REMARK    7  A    between atoms: _18  and  _20
REMARK    8  A    between atoms: _20  and  _21
REMARK    9  A    between atoms: _20  and  _23
REMARK   10  A    between atoms: _23  and  _24
REMARK   11  A    between atoms: _27  and  _29
REMARK   12  A    between atoms: _29  and  _30
REMARK   13  A    between atoms: _29  and  _32
REMARK   14  A    between atoms: _32  and  _33
REMARK   15  A    between atoms: _36  and  _38
REMARK   16  A    between atoms: _38  and  _39
REMARK   17  A    between atoms: _38  and  _41
REMARK   18  A    between atoms: _41  and  _42
REMARK   19  A    between atoms: _45  and  _47
REMARK   20  A    between atoms: _47  and  _48
REMARK   21  A    between atoms: _47  and  _50
REMARK   22  A    between atoms: _50  and  _51
REMARK   23  A    between atoms: _54  and  _56
REMARK   24  A    between atoms: _56  and  _57
REMARK   25  A    between atoms: _59  and  _61
REMARK   26  A    between atoms: _61  and  _62
REMARK   27  A    between atoms: _65  and  _67
REMARK   28  A    between atoms: _67  and  _68
REMARK   29  A    between atoms: _67  and  _70
REMARK   30  A    between atoms: _70  and  _71
REMARK   31  A    between atoms: _74  and  _76
REMARK   32  A    between atoms: _76  and  _77
REMARK   33  A    between atoms: _76  and  _79
REMARK   34  A    between atoms: _79  and  _80
REMARK   35  A    between atoms: _85  and  _87
REMARK   36  A    between atoms: _87  and  _88
REMARK   37  A    between atoms: _87  and  _90
REMARK   38  A    between atoms: _90  and  _91
REMARK   39  A    between atoms: _94  and  _96
REMARK   40  A    between atoms: _96  and  _97
REMARK   41  A    between atoms: _96  and  _99
REMARK   42  A    between atoms: _102  and  _104
REMARK   43  A    between atoms: _104  and  _105
REMARK   44  A    between atoms: _104  and  _107
REMARK   45  A    between atoms: _107  and  _108
REMARK   46  A    between atoms: _108  and  _109
REMARK   47  A    between atoms: _109  and  _110
REMARK   48  A    between atoms: _110  and  _111
REMARK   49  A    between atoms: _115  and  _117
REMARK   50  A    between atoms: _117  and  _118
REMARK   51  A    between atoms: _117  and  _120
REMARK   52  A    between atoms: _120  and  _121
REMARK   53  A    between atoms: _121  and  _122
REMARK   54  A    between atoms: _124  and  _126
REMARK   55  A    between atoms: _126  and  _127
REMARK   56  A    between atoms: _126  and  _129
REMARK   57  A    between atoms: _129  and  _130
REMARK   58  A    between atoms: _133  and  _135
REMARK   59  A    between atoms: _135  and  _136
REMARK   60  A    between atoms: _138  and  _140
REMARK   61  A    between atoms: _140  and  _141
REMARK   62  A    between atoms: _143  and  _145
REMARK   63  A    between atoms: _145  and  _146
REMARK   64  A    between atoms: _145  and  _148
REMARK   65  A    between atoms: _148  and  _149
REMARK   66  A    between atoms: _152  and  _154
REMARK   67  A    between atoms: _154  and  _155
REMARK   68  A    between atoms: _157  and  _159
REMARK   69  A    between atoms: _159  and  _160
REMARK   70  A    between atoms: _162  and  _164
REMARK   71  A    between atoms: _164  and  _165
REMARK   72  A    between atoms: _164  and  _167
REMARK   73  A    between atoms: _167  and  _168
REMARK   74  A    between atoms: _174  and  _176
REMARK   75  A    between atoms: _176  and  _177
REMARK   76  A    between atoms: _176  and  _179
REMARK   77  A    between atoms: _179  and  _180
REMARK   78  A    between atoms: _183  and  _185
REMARK   79  A    between atoms: _185  and  _186
REMARK   80  A    between atoms: _185  and  _188
REMARK   81  A    between atoms: _191  and  _193
REMARK   82  A    between atoms: _193  and  _194
REMARK   83  A    between atoms: _193  and  _196
REMARK   84  A    between atoms: _196  and  _197
REMARK   85  A    between atoms: _200  and  _202
REMARK   86  A    between atoms: _202  and  _203
REMARK   87  A    between atoms: _202  and  _205
REMARK   88  A    between atoms: _205  and  _206
REMARK   89  A    between atoms: _210  and  _211
REMARK   90  A    between atoms: _216  and  _218
REMARK   91  A    between atoms: _218  and  _219
REMARK   92  A    between atoms: _218  and  _221
REMARK   93  A    between atoms: _224  and  _226
REMARK   94  A    between atoms: _226  and  _227
REMARK   95  A    between atoms: _226  and  _229
REMARK   96  A    between atoms: _229  and  _230
REMARK   97  A    between atoms: _235  and  _237
REMARK   98  A    between atoms: _237  and  _238
REMARK   99  A    between atoms: _237  and  _240
REMARK  100  A    between atoms: _240  and  _241
REMARK  101  A    between atoms: _244  and  _246
REMARK  102  A    between atoms: _246  and  _247
REMARK  103  A    between atoms: _246  and  _249
REMARK  104  A    between atoms: _249  and  _250
REMARK  105  A    between atoms: _253  and  _255
REMARK  106  A    between atoms: _255  and  _256
REMARK  107  A    between atoms: _258  and  _260
REMARK  108  A    between atoms: _260  and  _261
REMARK  109  A    between atoms: _260  and  _263
REMARK  110  A    between atoms: _263  and  _264
REMARK  111  A    between atoms: _264  and  _265
REMARK  112  A    between atoms: _265  and  _266
REMARK  113  A    between atoms: _275  and  _277
REMARK  114  A    between atoms: _277  and  _278
REMARK  115  A    between atoms: _277  and  _280
REMARK  116  A    between atoms: _280  and  _281
REMARK  117  A    between atoms: _286  and  _288
REMARK  118  A    between atoms: _288  and  _289
REMARK  119  A    between atoms: _288  and  _291
REMARK  120  A    between atoms: _291  and  _292
REMARK  121  A    between atoms: _292  and  _293
REMARK  122  A    between atoms: _293  and  _294
REMARK  123  A    between atoms: _303  and  _305
REMARK  124  A    between atoms: _305  and  _306
REMARK  125  A    between atoms: _305  and  _308
REMARK  126  A    between atoms: _308  and  _309
REMARK  127  A    between atoms: _312  and  _314
REMARK  128  A    between atoms: _314  and  _315
REMARK  129  A    between atoms: _314  and  _317
REMARK  130  A    between atoms: _317  and  _318
REMARK  131  A    between atoms: _321  and  _323
REMARK  132  A    between atoms: _323  and  _324
REMARK  133  A    between atoms: _323  and  _326
REMARK  134  A    between atoms: _326  and  _327
REMARK  135  A    between atoms: _330  and  _332
REMARK  136  A    between atoms: _332  and  _333
REMARK  137  A    between atoms: _332  and  _335
REMARK  138  A    between atoms: _335  and  _336
REMARK  139  A    between atoms: _339  and  _341
REMARK  140  A    between atoms: _341  and  _342
REMARK  141  A    between atoms: _344  and  _346
REMARK  142  A    between atoms: _346  and  _347
REMARK  143  A    between atoms: _350  and  _352
REMARK  144  A    between atoms: _352  and  _353
REMARK  145  A    between atoms: _352  and  _355
REMARK  146  A    between atoms: _355  and  _356
REMARK  147  A    between atoms: _359  and  _361
REMARK  148  A    between atoms: _361  and  _362
REMARK  149  A    between atoms: _361  and  _364
REMARK  150  A    between atoms: _364  and  _365
REMARK  151  A    between atoms: _370  and  _372
REMARK  152  A    between atoms: _372  and  _373
REMARK  153  A    between atoms: _372  and  _375
REMARK  154  A    between atoms: _375  and  _376
REMARK  155  A    between atoms: _379  and  _381
REMARK  156  A    between atoms: _381  and  _382
REMARK  157  A    between atoms: _381  and  _384
REMARK  158  A    between atoms: _387  and  _389
REMARK  159  A    between atoms: _389  and  _390
REMARK  160  A    between atoms: _389  and  _392
REMARK  161  A    between atoms: _392  and  _393
REMARK  162  A    between atoms: _393  and  _394
REMARK  163  A    between atoms: _394  and  _395
REMARK  164  A    between atoms: _395  and  _396
REMARK  165  A    between atoms: _400  and  _402
REMARK  166  A    between atoms: _402  and  _403
REMARK  167  A    between atoms: _402  and  _405
REMARK  168  A    between atoms: _405  and  _406
REMARK  169  A    between atoms: _406  and  _407
REMARK  170  A    between atoms: _409  and  _411
REMARK  171  A    between atoms: _411  and  _412
REMARK  172  A    between atoms: _411  and  _414
REMARK  173  A    between atoms: _414  and  _415
REMARK  174  A    between atoms: _418  and  _420
REMARK  175  A    between atoms: _420  and  _421
REMARK  176  A    between atoms: _423  and  _425
REMARK  177  A    between atoms: _425  and  _426
REMARK  178  A    between atoms: _428  and  _430
REMARK  179  A    between atoms: _430  and  _431
REMARK  180  A    between atoms: _430  and  _433
REMARK  181  A    between atoms: _433  and  _434
REMARK  182  A    between atoms: _437  and  _439
REMARK  183  A    between atoms: _439  and  _440
REMARK  184  A    between atoms: _442  and  _444
REMARK  185  A    between atoms: _444  and  _445
REMARK  186  A    between atoms: _447  and  _449
REMARK  187  A    between atoms: _449  and  _450
REMARK  188  A    between atoms: _449  and  _452
REMARK  189  A    between atoms: _452  and  _453
REMARK  190  A    between atoms: _459  and  _461
REMARK  191  A    between atoms: _461  and  _462
REMARK  192  A    between atoms: _461  and  _464
REMARK  193  A    between atoms: _464  and  _465
REMARK  194  A    between atoms: _468  and  _470
REMARK  195  A    between atoms: _470  and  _471
REMARK  196  A    between atoms: _470  and  _473
REMARK  197  A    between atoms: _473  and  _474
REMARK  198  A    between atoms: _477  and  _479
REMARK  199  A    between atoms: _479  and  _480
REMARK  200  A    between atoms: _479  and  _482
REMARK  201  A    between atoms: _482  and  _483
REMARK  202  A    between atoms: _487  and  _488
REMARK  203  A    between atoms: _493  and  _495
REMARK  204  A    between atoms: _495  and  _496
REMARK  205  A    between atoms: _495  and  _498
REMARK  206  A    between atoms: _501  and  _503
REMARK  207  A    between atoms: _503  and  _504
REMARK  208  A    between atoms: _503  and  _506
REMARK  209  A    between atoms: _506  and  _507
REMARK  210  A    between atoms: _512  and  _514
REMARK  211  A    between atoms: _514  and  _515
REMARK  212  A    between atoms: _514  and  _517
REMARK  213  A    between atoms: _517  and  _518
REMARK  214  A    between atoms: _521  and  _523
REMARK  215  A    between atoms: _523  and  _524
REMARK  216  A    between atoms: _523  and  _526
REMARK  217  A    between atoms: _526  and  _527
REMARK  218  A    between atoms: _530  and  _532
REMARK  219  A    between atoms: _532  and  _533
REMARK  220  A    between atoms: _535  and  _537
REMARK  221  A    between atoms: _537  and  _538
REMARK  222  A    between atoms: _537  and  _540
REMARK  223  A    between atoms: _540  and  _541
REMARK  224  A    between atoms: _541  and  _542
REMARK  225  A    between atoms: _542  and  _543
REMARK  226  A    between atoms: _552  and  _554
REMARK  227  A    between atoms: _554  and  _555
REMARK  228  A    between atoms: _554  and  _557
REMARK  229  A    between atoms: _557  and  _558
REMARK                            x       y       z     vdW  Elec       q    Type
REMARK                         _______ _______ _______ _____ _____    ______ ____
ROOT
ATOM      1  O   HOH     1      18.358  30.869  21.717  0.00  0.00    +0.000 OA
ENDROOT
TORSDOF 0
REMARK  Name = ../refined-set-2016/2qci/2qci_pocket.pdb
REMARK  229 active torsions:
REMARK  status: ('A' for Active; 'I' for Inactive)
REMARK    1  A    between atoms: _1  and  _3
REMARK    2  A    between atoms: _3  and  _4
REMARK    3  A    between atoms: _3  and  _6
REMARK    4  A    between atoms: _6  and  _7
REMARK    5  A    between atoms: _7  and  _8
REMARK    6  A    between atoms: _8  and  _9
REMARK    7  A    between atoms: _18  and  _20
REMARK    8  A    between atoms: _20  and  _21
REMARK    9  A    between atoms: _20  and  _23
REMARK   10  A    between atoms: _23  and  _24
REMARK   11  A    between atoms: _27  and  _29
REMARK   12  A    between atoms: _29  and  _30
REMARK   13  A    between atoms: _29  and  _32
REMARK   14  A    between atoms: _32  and  _33
REMARK   15  A    between atoms: _36  and  _38
REMARK   16  A    between atoms: _38  and  _39
REMARK   17  A    between atoms: _38  and  _41
REMARK   18  A    between atoms: _41  and  _42
REMARK   19  A    between atoms: _45  and  _47
REMARK   20  A    between atoms: _47  and  _48
REMARK   21  A    between atoms: _47  and  _50
REMARK   22  A    between atoms: _50  and  _51
REMARK   23  A    between atoms: _54  and  _56
REMARK   24  A    between atoms: _56  and  _57
REMARK   25  A    between atoms: _59  and  _61
REMARK   26  A    between atoms: _61  and  _62
REMARK   27  A    between atoms: _65  and  _67
REMARK   28  A    between atoms: _67  and  _68
REMARK   29  A    between atoms: _67  and  _70
REMARK   30  A    between atoms: _70  and  _71
REMARK   31  A    between atoms: _74  and  _76
REMARK   32  A    between atoms: _76  and  _77
REMARK   33  A    between atoms: _76  and  _79
REMARK   34  A    between atoms: _79  and  _80
REMARK   35  A    between atoms: _85  and  _87
REMARK   36  A    between atoms: _87  and  _88
REMARK   37  A    between atoms: _87  and  _90
REMARK   38  A    between atoms: _90  and  _91
REMARK   39  A    between atoms: _94  and  _96
REMARK   40  A    between atoms: _96  and  _97
REMARK   41  A    between atoms: _96  and  _99
REMARK   42  A    between atoms: _102  and  _104
REMARK   43  A    between atoms: _104  and  _105
REMARK   44  A    between atoms: _104  and  _107
REMARK   45  A    between atoms: _107  and  _108
REMARK   46  A    between atoms: _108  and  _109
REMARK   47  A    between atoms: _109  and  _110
REMARK   48  A    between atoms: _110  and  _111
REMARK   49  A    between atoms: _115  and  _117
REMARK   50  A    between atoms: _117  and  _118
REMARK   51  A    between atoms: _117  and  _120
REMARK   52  A    between atoms: _120  and  _121
REMARK   53  A    between atoms: _121  and  _122
REMARK   54  A    between atoms: _124  and  _126
REMARK   55  A    between atoms: _126  and  _127
REMARK   56  A    between atoms: _126  and  _129
REMARK   57  A    between atoms: _129  and  _130
REMARK   58  A    between atoms: _133  and  _135
REMARK   59  A    between atoms: _135  and  _136
REMARK   60  A    between atoms: _138  and  _140
REMARK   61  A    between atoms: _140  and  _141
REMARK   62  A    between atoms: _143  and  _145
REMARK   63  A    between atoms: _145  and  _146
REMARK   64  A    between atoms: _145  and  _148
REMARK   65  A    between atoms: _148  and  _149
REMARK   66  A    between atoms: _152  and  _154
REMARK   67  A    between atoms: _154  and  _155
REMARK   68  A    between atoms: _157  and  _159
REMARK   69  A    between atoms: _159  and  _160
REMARK   70  A    between atoms: _162  and  _164
REMARK   71  A    between atoms: _164  and  _165
REMARK   72  A    between atoms: _164  and  _167
REMARK   73  A    between atoms: _167  and  _168
REMARK   74  A    between atoms: _174  and  _176
REMARK   75  A    between atoms: _176  and  _177
REMARK   76  A    between atoms: _176  and  _179
REMARK   77  A    between atoms: _179  and  _180
REMARK   78  A    between atoms: _183  and  _185
REMARK   79  A    between atoms: _185  and  _186
REMARK   80  A    between atoms: _185  and  _188
REMARK   81  A    between atoms: _191  and  _193
REMARK   82  A    between atoms: _193  and  _194
REMARK   83  A    between atoms: _193  and  _196
REMARK   84  A    between atoms: _196  and  _197
REMARK   85  A    between atoms: _200  and  _202
REMARK   86  A    between atoms: _202  and  _203
REMARK   87  A    between atoms: _202  and  _205
REMARK   88  A    between atoms: _205  and  _206
REMARK   89  A    between atoms: _210  and  _211
REMARK   90  A    between atoms: _216  and  _218
REMARK   91  A    between atoms: _218  and  _219
REMARK   92  A    between atoms: _218  and  _221
REMARK   93  A    between atoms: _224  and  _226
REMARK   94  A    between atoms: _226  and  _227
REMARK   95  A    between atoms: _226  and  _229
REMARK   96  A    between atoms: _229  and  _230
REMARK   97  A    between atoms: _235  and  _237
REMARK   98  A    between atoms: _237  and  _238
REMARK   99  A    between atoms: _237  and  _240
REMARK  100  A    between atoms: _240  and  _241
REMARK  101  A    between atoms: _244  and  _246
REMARK  102  A    between atoms: _246  and  _247
REMARK  103  A    between atoms: _246  and  _249
REMARK  104  A    between atoms: _249  and  _250
REMARK  105  A    between atoms: _253  and  _255
REMARK  106  A    between atoms: _255  and  _256
REMARK  107  A    between atoms: _258  and  _260
REMARK  108  A    between atoms: _260  and  _261
REMARK  109  A    between atoms: _260  and  _263
REMARK  110  A    between atoms: _263  and  _264
REMARK  111  A    between atoms: _264  and  _265
REMARK  112  A    between atoms: _265  and  _266
REMARK  113  A    between atoms: _275  and  _277
REMARK  114  A    between atoms: _277  and  _278
REMARK  115  A    between atoms: _277  and  _280
REMARK  116  A    between atoms: _280  and  _281
REMARK  117  A    between atoms: _286  and  _288
REMARK  118  A    between atoms: _288  and  _289
REMARK  119  A    between atoms: _288  and  _291
REMARK  120  A    between atoms: _291  and  _292
REMARK  121  A    between atoms: _292  and  _293
REMARK  122  A    between atoms: _293  and  _294
REMARK  123  A    between atoms: _303  and  _305
REMARK  124  A    between atoms: _305  and  _306
REMARK  125  A    between atoms: _305  and  _308
REMARK  126  A    between atoms: _308  and  _309
REMARK  127  A    between atoms: _312  and  _314
REMARK  128  A    between atoms: _314  and  _315
REMARK  129  A    between atoms: _314  and  _317
REMARK  130  A    between atoms: _317  and  _318
REMARK  131  A    between atoms: _321  and  _323
REMARK  132  A    between atoms: _323  and  _324
REMARK  133  A    between atoms: _323  and  _326
REMARK  134  A    between atoms: _326  and  _327
REMARK  135  A    between atoms: _330  and  _332
REMARK  136  A    between atoms: _332  and  _333
REMARK  137  A    between atoms: _332  and  _335
REMARK  138  A    between atoms: _335  and  _336
REMARK  139  A    between atoms: _339  and  _341
REMARK  140  A    between atoms: _341  and  _342
REMARK  141  A    between atoms: _344  and  _346
REMARK  142  A    between atoms: _346  and  _347
REMARK  143  A    between atoms: _350  and  _352
REMARK  144  A    between atoms: _352  and  _353
REMARK  145  A    between atoms: _352  and  _355
REMARK  146  A    between atoms: _355  and  _356
REMARK  147  A    between atoms: _359  and  _361
REMARK  148  A    between atoms: _361  and  _362
REMARK  149  A    between atoms: _361  and  _364
REMARK  150  A    between atoms: _364  and  _365
REMARK  151  A    between atoms: _370  and  _372
REMARK  152  A    between atoms: _372  and  _373
REMARK  153  A    between atoms: _372  and  _375
REMARK  154  A    between atoms: _375  and  _376
REMARK  155  A    between atoms: _379  and  _381
REMARK  156  A    between atoms: _381  and  _382
REMARK  157  A    between atoms: _381  and  _384
REMARK  158  A    between atoms: _387  and  _389
REMARK  159  A    between atoms: _389  and  _390
REMARK  160  A    between atoms: _389  and  _392
REMARK  161  A    between atoms: _392  and  _393
REMARK  162  A    between atoms: _393  and  _394
REMARK  163  A    between atoms: _394  and  _395
REMARK  164  A    between atoms: _395  and  _396
REMARK  165  A    between atoms: _400  and  _402
REMARK  166  A    between atoms: _402  and  _403
REMARK  167  A    between atoms: _402  and  _405
REMARK  168  A    between atoms: _405  and  _406
REMARK  169  A    between atoms: _406  and  _407
REMARK  170  A    between atoms: _409  and  _411
REMARK  171  A    between atoms: _411  and  _412
REMARK  172  A    between atoms: _411  and  _414
REMARK  173  A    between atoms: _414  and  _415
REMARK  174  A    between atoms: _418  and  _420
REMARK  175  A    between atoms: _420  and  _421
REMARK  176  A    between atoms: _423  and  _425
REMARK  177  A    between atoms: _425  and  _426
REMARK  178  A    between atoms: _428  and  _430
REMARK  179  A    between atoms: _430  and  _431
REMARK  180  A    between atoms: _430  and  _433
REMARK  181  A    between atoms: _433  and  _434
REMARK  182  A    between atoms: _437  and  _439
REMARK  183  A    between atoms: _439  and  _440
REMARK  184  A    between atoms: _442  and  _444
REMARK  185  A    between atoms: _444  and  _445
REMARK  186  A    between atoms: _447  and  _449
REMARK  187  A    between atoms: _449  and  _450
REMARK  188  A    between atoms: _449  and  _452
REMARK  189  A    between atoms: _452  and  _453
REMARK  190  A    between atoms: _459  and  _461
REMARK  191  A    between atoms: _461  and  _462
REMARK  192  A    between atoms: _461  and  _464
REMARK  193  A    between atoms: _464  and  _465
REMARK  194  A    between atoms: _468  and  _470
REMARK  195  A    between atoms: _470  and  _471
REMARK  196  A    between atoms: _470  and  _473
REMARK  197  A    between atoms: _473  and  _474
REMARK  198  A    between atoms: _477  and  _479
REMARK  199  A    between atoms: _479  and  _480
REMARK  200  A    between atoms: _479  and  _482
REMARK  201  A    between atoms: _482  and  _483
REMARK  202  A    between atoms: _487  and  _488
REMARK  203  A    between atoms: _493  and  _495
REMARK  204  A    between atoms: _495  and  _496
REMARK  205  A    between atoms: _495  and  _498
REMARK  206  A    between atoms: _501  and  _503
REMARK  207  A    between atoms: _503  and  _504
REMARK  208  A    between atoms: _503  and  _506
REMARK  209  A    between atoms: _506  and  _507
REMARK  210  A    between atoms: _512  and  _514
REMARK  211  A    between atoms: _514  and  _515
REMARK  212  A    between atoms: _514  and  _517
REMARK  213  A    between atoms: _517  and  _518
REMARK  214  A    between atoms: _521  and  _523
REMARK  215  A    between atoms: _523  and  _524
REMARK  216  A    between atoms: _523  and  _526
REMARK  217  A    between atoms: _526  and  _527
REMARK  218  A    between atoms: _530  and  _532
REMARK  219  A    between atoms: _532  and  _533
REMARK  220  A    between atoms: _535  and  _537
REMARK  221  A    between atoms: _537  and  _538
REMARK  222  A    between atoms: _537  and  _540
REMARK  223  A    between atoms: _540  and  _541
REMARK  224  A    between atoms: _541  and  _542
REMARK  225  A    between atoms: _542  and  _543
REMARK  226  A    between atoms: _552  and  _554
REMARK  227  A    between atoms: _554  and  _555
REMARK  228  A    between atoms: _554  and  _557
REMARK  229  A    between atoms: _557  and  _558
REMARK                            x       y       z     vdW  Elec       q    Type
REMARK                         _______ _______ _______ _____ _____    ______ ____
ROOT
ATOM      1  O   HOH     1      20.831  33.834  10.885  0.00  0.00    +0.000 OA
ENDROOT
TORSDOF 0
REMARK  Name = ../refined-set-2016/2qci/2qci_pocket.pdb
REMARK  229 active torsions:
REMARK  status: ('A' for Active; 'I' for Inactive)
REMARK    1  A    between atoms: _1  and  _3
REMARK    2  A    between atoms: _3  and  _4
REMARK    3  A    between atoms: _3  and  _6
REMARK    4  A    between atoms: _6  and  _7
REMARK    5  A    between atoms: _7  and  _8
REMARK    6  A    between atoms: _8  and  _9
REMARK    7  A    between atoms: _18  and  _20
REMARK    8  A    between atoms: _20  and  _21
REMARK    9  A    between atoms: _20  and  _23
REMARK   10  A    between atoms: _23  and  _24
REMARK   11  A    between atoms: _27  and  _29
REMARK   12  A    between atoms: _29  and  _30
REMARK   13  A    between atoms: _29  and  _32
REMARK   14  A    between atoms: _32  and  _33
REMARK   15  A    between atoms: _36  and  _38
REMARK   16  A    between atoms: _38  and  _39
REMARK   17  A    between atoms: _38  and  _41
REMARK   18  A    between atoms: _41  and  _42
REMARK   19  A    between atoms: _45  and  _47
REMARK   20  A    between atoms: _47  and  _48
REMARK   21  A    between atoms: _47  and  _50
REMARK   22  A    between atoms: _50  and  _51
REMARK   23  A    between atoms: _54  and  _56
REMARK   24  A    between atoms: _56  and  _57
REMARK   25  A    between atoms: _59  and  _61
REMARK   26  A    between atoms: _61  and  _62
REMARK   27  A    between atoms: _65  and  _67
REMARK   28  A    between atoms: _67  and  _68
REMARK   29  A    between atoms: _67  and  _70
REMARK   30  A    between atoms: _70  and  _71
REMARK   31  A    between atoms: _74  and  _76
REMARK   32  A    between atoms: _76  and  _77
REMARK   33  A    between atoms: _76  and  _79
REMARK   34  A    between atoms: _79  and  _80
REMARK   35  A    between atoms: _85  and  _87
REMARK   36  A    between atoms: _87  and  _88
REMARK   37  A    between atoms: _87  and  _90
REMARK   38  A    between atoms: _90  and  _91
REMARK   39  A    between atoms: _94  and  _96
REMARK   40  A    between atoms: _96  and  _97
REMARK   41  A    between atoms: _96  and  _99
REMARK   42  A    between atoms: _102  and  _104
REMARK   43  A    between atoms: _104  and  _105
REMARK   44  A    between atoms: _104  and  _107
REMARK   45  A    between atoms: _107  and  _108
REMARK   46  A    between atoms: _108  and  _109
REMARK   47  A    between atoms: _109  and  _110
REMARK   48  A    between atoms: _110  and  _111
REMARK   49  A    between atoms: _115  and  _117
REMARK   50  A    between atoms: _117  and  _118
REMARK   51  A    between atoms: _117  and  _120
REMARK   52  A    between atoms: _120  and  _121
REMARK   53  A    between atoms: _121  and  _122
REMARK   54  A    between atoms: _124  and  _126
REMARK   55  A    between atoms: _126  and  _127
REMARK   56  A    between atoms: _126  and  _129
REMARK   57  A    between atoms: _129  and  _130
REMARK   58  A    between atoms: _133  and  _135
REMARK   59  A    between atoms: _135  and  _136
REMARK   60  A    between atoms: _138  and  _140
REMARK   61  A    between atoms: _140  and  _141
REMARK   62  A    between atoms: _143  and  _145
REMARK   63  A    between atoms: _145  and  _146
REMARK   64  A    between atoms: _145  and  _148
REMARK   65  A    between atoms: _148  and  _149
REMARK   66  A    between atoms: _152  and  _154
REMARK   67  A    between atoms: _154  and  _155
REMARK   68  A    between atoms: _157  and  _159
REMARK   69  A    between atoms: _159  and  _160
REMARK   70  A    between atoms: _162  and  _164
REMARK   71  A    between atoms: _164  and  _165
REMARK   72  A    between atoms: _164  and  _167
REMARK   73  A    between atoms: _167  and  _168
REMARK   74  A    between atoms: _174  and  _176
REMARK   75  A    between atoms: _176  and  _177
REMARK   76  A    between atoms: _176  and  _179
REMARK   77  A    between atoms: _179  and  _180
REMARK   78  A    between atoms: _183  and  _185
REMARK   79  A    between atoms: _185  and  _186
REMARK   80  A    between atoms: _185  and  _188
REMARK   81  A    between atoms: _191  and  _193
REMARK   82  A    between atoms: _193  and  _194
REMARK   83  A    between atoms: _193  and  _196
REMARK   84  A    between atoms: _196  and  _197
REMARK   85  A    between atoms: _200  and  _202
REMARK   86  A    between atoms: _202  and  _203
REMARK   87  A    between atoms: _202  and  _205
REMARK   88  A    between atoms: _205  and  _206
REMARK   89  A    between atoms: _210  and  _211
REMARK   90  A    between atoms: _216  and  _218
REMARK   91  A    between atoms: _218  and  _219
REMARK   92  A    between atoms: _218  and  _221
REMARK   93  A    between atoms: _224  and  _226
REMARK   94  A    between atoms: _226  and  _227
REMARK   95  A    between atoms: _226  and  _229
REMARK   96  A    between atoms: _229  and  _230
REMARK   97  A    between atoms: _235  and  _237
REMARK   98  A    between atoms: _237  and  _238
REMARK   99  A    between atoms: _237  and  _240
REMARK  100  A    between atoms: _240  and  _241
REMARK  101  A    between atoms: _244  and  _246
REMARK  102  A    between atoms: _246  and  _247
REMARK  103  A    between atoms: _246  and  _249
REMARK  104  A    between atoms: _249  and  _250
REMARK  105  A    between atoms: _253  and  _255
REMARK  106  A    between atoms: _255  and  _256
REMARK  107  A    between atoms: _258  and  _260
REMARK  108  A    between atoms: _260  and  _261
REMARK  109  A    between atoms: _260  and  _263
REMARK  110  A    between atoms: _263  and  _264
REMARK  111  A    between atoms: _264  and  _265
REMARK  112  A    between atoms: _265  and  _266
REMARK  113  A    between atoms: _275  and  _277
REMARK  114  A    between atoms: _277  and  _278
REMARK  115  A    between atoms: _277  and  _280
REMARK  116  A    between atoms: _280  and  _281
REMARK  117  A    between atoms: _286  and  _288
REMARK  118  A    between atoms: _288  and  _289
REMARK  119  A    between atoms: _288  and  _291
REMARK  120  A    between atoms: _291  and  _292
REMARK  121  A    between atoms: _292  and  _293
REMARK  122  A    between atoms: _293  and  _294
REMARK  123  A    between atoms: _303  and  _305
REMARK  124  A    between atoms: _305  and  _306
REMARK  125  A    between atoms: _305  and  _308
REMARK  126  A    between atoms: _308  and  _309
REMARK  127  A    between atoms: _312  and  _314
REMARK  128  A    between atoms: _314  and  _315
REMARK  129  A    between atoms: _314  and  _317
REMARK  130  A    between atoms: _317  and  _318
REMARK  131  A    between atoms: _321  and  _323
REMARK  132  A    between atoms: _323  and  _324
REMARK  133  A    between atoms: _323  and  _326
REMARK  134  A    between atoms: _326  and  _327
REMARK  135  A    between atoms: _330  and  _332
REMARK  136  A    between atoms: _332  and  _333
REMARK  137  A    between atoms: _332  and  _335
REMARK  138  A    between atoms: _335  and  _336
REMARK  139  A    between atoms: _339  and  _341
REMARK  140  A    between atoms: _341  and  _342
REMARK  141  A    between atoms: _344  and  _346
REMARK  142  A    between atoms: _346  and  _347
REMARK  143  A    between atoms: _350  and  _352
REMARK  144  A    between atoms: _352  and  _353
REMARK  145  A    between atoms: _352  and  _355
REMARK  146  A    between atoms: _355  and  _356
REMARK  147  A    between atoms: _359  and  _361
REMARK  148  A    between atoms: _361  and  _362
REMARK  149  A    between atoms: _361  and  _364
REMARK  150  A    between atoms: _364  and  _365
REMARK  151  A    between atoms: _370  and  _372
REMARK  152  A    between atoms: _372  and  _373
REMARK  153  A    between atoms: _372  and  _375
REMARK  154  A    between atoms: _375  and  _376
REMARK  155  A    between atoms: _379  and  _381
REMARK  156  A    between atoms: _381  and  _382
REMARK  157  A    between atoms: _381  and  _384
REMARK  158  A    between atoms: _387  and  _389
REMARK  159  A    between atoms: _389  and  _390
REMARK  160  A    between atoms: _389  and  _392
REMARK  161  A    between atoms: _392  and  _393
REMARK  162  A    between atoms: _393  and  _394
REMARK  163  A    between atoms: _394  and  _395
REMARK  164  A    between atoms: _395  and  _396
REMARK  165  A    between atoms: _400  and  _402
REMARK  166  A    between atoms: _402  and  _403
REMARK  167  A    between atoms: _402  and  _405
REMARK  168  A    between atoms: _405  and  _406
REMARK  169  A    between atoms: _406  and  _407
REMARK  170  A    between atoms: _409  and  _411
REMARK  171  A    between atoms: _411  and  _412
REMARK  172  A    between atoms: _411  and  _414
REMARK  173  A    between atoms: _414  and  _415
REMARK  174  A    between atoms: _418  and  _420
REMARK  175  A    between atoms: _420  and  _421
REMARK  176  A    between atoms: _423  and  _425
REMARK  177  A    between atoms: _425  and  _426
REMARK  178  A    between atoms: _428  and  _430
REMARK  179  A    between atoms: _430  and  _431
REMARK  180  A    between atoms: _430  and  _433
REMARK  181  A    between atoms: _433  and  _434
REMARK  182  A    between atoms: _437  and  _439
REMARK  183  A    between atoms: _439  and  _440
REMARK  184  A    between atoms: _442  and  _444
REMARK  185  A    between atoms: _444  and  _445
REMARK  186  A    between atoms: _447  and  _449
REMARK  187  A    between atoms: _449  and  _450
REMARK  188  A    between atoms: _449  and  _452
REMARK  189  A    between atoms: _452  and  _453
REMARK  190  A    between atoms: _459  and  _461
REMARK  191  A    between atoms: _461  and  _462
REMARK  192  A    between atoms: _461  and  _464
REMARK  193  A    between atoms: _464  and  _465
REMARK  194  A    between atoms: _468  and  _470
REMARK  195  A    between atoms: _470  and  _471
REMARK  196  A    between atoms: _470  and  _473
REMARK  197  A    between atoms: _473  and  _474
REMARK  198  A    between atoms: _477  and  _479
REMARK  199  A    between atoms: _479  and  _480
REMARK  200  A    between atoms: _479  and  _482
REMARK  201  A    between atoms: _482  and  _483
REMARK  202  A    between atoms: _487  and  _488
REMARK  203  A    between atoms: _493  and  _495
REMARK  204  A    between atoms: _495  and  _496
REMARK  205  A    between atoms: _495  and  _498
REMARK  206  A    between atoms: _501  and  _503
REMARK  207  A    between atoms: _503  and  _504
REMARK  208  A    between atoms: _503  and  _506
REMARK  209  A    between atoms: _506  and  _507
REMARK  210  A    between atoms: _512  and  _514
REMARK  211  A    between atoms: _514  and  _515
REMARK  212  A    between atoms: _514  and  _517
REMARK  213  A    between atoms: _517  and  _518
REMARK  214  A    between atoms: _521  and  _523
REMARK  215  A    between atoms: _523  and  _524
REMARK  216  A    between atoms: _523  and  _526
REMARK  217  A    between atoms: _526  and  _527
REMARK  218  A    between atoms: _530  and  _532
REMARK  219  A    between atoms: _532  and  _533
REMARK  220  A    between atoms: _535  and  _537
REMARK  221  A    between atoms: _537  and  _538
REMARK  222  A    between atoms: _537  and  _540
REMARK  223  A    between atoms: _540  and  _541
REMARK  224  A    between atoms: _541  and  _542
REMARK  225  A    between atoms: _542  and  _543
REMARK  226  A    between atoms: _552  and  _554
REMARK  227  A    between atoms: _554  and  _555
REMARK  228  A    between atoms: _554  and  _557
REMARK  229  A    between atoms: _557  and  _558
REMARK                            x       y       z     vdW  Elec       q    Type
REMARK                         _______ _______ _______ _____ _____    ______ ____
ROOT
ATOM      1  O   HOH     1      20.141  28.834  21.355  0.00  0.00    +0.000 OA
ENDROOT
TORSDOF 0
REMARK  Name = ../refined-set-2016/2qci/2qci_pocket.pdb
REMARK  229 active torsions:
REMARK  status: ('A' for Active; 'I' for Inactive)
REMARK    1  A    between atoms: _1  and  _3
REMARK    2  A    between atoms: _3  and  _4
REMARK    3  A    between atoms: _3  and  _6
REMARK    4  A    between atoms: _6  and  _7
REMARK    5  A    between atoms: _7  and  _8
REMARK    6  A    between atoms: _8  and  _9
REMARK    7  A    between atoms: _18  and  _20
REMARK    8  A    between atoms: _20  and  _21
REMARK    9  A    between atoms: _20  and  _23
REMARK   10  A    between atoms: _23  and  _24
REMARK   11  A    between atoms: _27  and  _29
REMARK   12  A    between atoms: _29  and  _30
REMARK   13  A    between atoms: _29  and  _32
REMARK   14  A    between atoms: _32  and  _33
REMARK   15  A    between atoms: _36  and  _38
REMARK   16  A    between atoms: _38  and  _39
REMARK   17  A    between atoms: _38  and  _41
REMARK   18  A    between atoms: _41  and  _42
REMARK   19  A    between atoms: _45  and  _47
REMARK   20  A    between atoms: _47  and  _48
REMARK   21  A    between atoms: _47  and  _50
REMARK   22  A    between atoms: _50  and  _51
REMARK   23  A    between atoms: _54  and  _56
REMARK   24  A    between atoms: _56  and  _57
REMARK   25  A    between atoms: _59  and  _61
REMARK   26  A    between atoms: _61  and  _62
REMARK   27  A    between atoms: _65  and  _67
REMARK   28  A    between atoms: _67  and  _68
REMARK   29  A    between atoms: _67  and  _70
REMARK   30  A    between atoms: _70  and  _71
REMARK   31  A    between atoms: _74  and  _76
REMARK   32  A    between atoms: _76  and  _77
REMARK   33  A    between atoms: _76  and  _79
REMARK   34  A    between atoms: _79  and  _80
REMARK   35  A    between atoms: _85  and  _87
REMARK   36  A    between atoms: _87  and  _88
REMARK   37  A    between atoms: _87  and  _90
REMARK   38  A    between atoms: _90  and  _91
REMARK   39  A    between atoms: _94  and  _96
REMARK   40  A    between atoms: _96  and  _97
REMARK   41  A    between atoms: _96  and  _99
REMARK   42  A    between atoms: _102  and  _104
REMARK   43  A    between atoms: _104  and  _105
REMARK   44  A    between atoms: _104  and  _107
REMARK   45  A    between atoms: _107  and  _108
REMARK   46  A    between atoms: _108  and  _109
REMARK   47  A    between atoms: _109  and  _110
REMARK   48  A    between atoms: _110  and  _111
REMARK   49  A    between atoms: _115  and  _117
REMARK   50  A    between atoms: _117  and  _118
REMARK   51  A    between atoms: _117  and  _120
REMARK   52  A    between atoms: _120  and  _121
REMARK   53  A    between atoms: _121  and  _122
REMARK   54  A    between atoms: _124  and  _126
REMARK   55  A    between atoms: _126  and  _127
REMARK   56  A    between atoms: _126  and  _129
REMARK   57  A    between atoms: _129  and  _130
REMARK   58  A    between atoms: _133  and  _135
REMARK   59  A    between atoms: _135  and  _136
REMARK   60  A    between atoms: _138  and  _140
REMARK   61  A    between atoms: _140  and  _141
REMARK   62  A    between atoms: _143  and  _145
REMARK   63  A    between atoms: _145  and  _146
REMARK   64  A    between atoms: _145  and  _148
REMARK   65  A    between atoms: _148  and  _149
REMARK   66  A    between atoms: _152  and  _154
REMARK   67  A    between atoms: _154  and  _155
REMARK   68  A    between atoms: _157  and  _159
REMARK   69  A    between atoms: _159  and  _160
REMARK   70  A    between atoms: _162  and  _164
REMARK   71  A    between atoms: _164  and  _165
REMARK   72  A    between atoms: _164  and  _167
REMARK   73  A    between atoms: _167  and  _168
REMARK   74  A    between atoms: _174  and  _176
REMARK   75  A    between atoms: _176  and  _177
REMARK   76  A    between atoms: _176  and  _179
REMARK   77  A    between atoms: _179  and  _180
REMARK   78  A    between atoms: _183  and  _185
REMARK   79  A    between atoms: _185  and  _186
REMARK   80  A    between atoms: _185  and  _188
REMARK   81  A    between atoms: _191  and  _193
REMARK   82  A    between atoms: _193  and  _194
REMARK   83  A    between atoms: _193  and  _196
REMARK   84  A    between atoms: _196  and  _197
REMARK   85  A    between atoms: _200  and  _202
REMARK   86  A    between atoms: _202  and  _203
REMARK   87  A    between atoms: _202  and  _205
REMARK   88  A    between atoms: _205  and  _206
REMARK   89  A    between atoms: _210  and  _211
REMARK   90  A    between atoms: _216  and  _218
REMARK   91  A    between atoms: _218  and  _219
REMARK   92  A    between atoms: _218  and  _221
REMARK   93  A    between atoms: _224  and  _226
REMARK   94  A    between atoms: _226  and  _227
REMARK   95  A    between atoms: _226  and  _229
REMARK   96  A    between atoms: _229  and  _230
REMARK   97  A    between atoms: _235  and  _237
REMARK   98  A    between atoms: _237  and  _238
REMARK   99  A    between atoms: _237  and  _240
REMARK  100  A    between atoms: _240  and  _241
REMARK  101  A    between atoms: _244  and  _246
REMARK  102  A    between atoms: _246  and  _247
REMARK  103  A    between atoms: _246  and  _249
REMARK  104  A    between atoms: _249  and  _250
REMARK  105  A    between atoms: _253  and  _255
REMARK  106  A    between atoms: _255  and  _256
REMARK  107  A    between atoms: _258  and  _260
REMARK  108  A    between atoms: _260  and  _261
REMARK  109  A    between atoms: _260  and  _263
REMARK  110  A    between atoms: _263  and  _264
REMARK  111  A    between atoms: _264  and  _265
REMARK  112  A    between atoms: _265  and  _266
REMARK  113  A    between atoms: _275  and  _277
REMARK  114  A    between atoms: _277  and  _278
REMARK  115  A    between atoms: _277  and  _280
REMARK  116  A    between atoms: _280  and  _281
REMARK  117  A    between atoms: _286  and  _288
REMARK  118  A    between atoms: _288  and  _289
REMARK  119  A    between atoms: _288  and  _291
REMARK  120  A    between atoms: _291  and  _292
REMARK  121  A    between atoms: _292  and  _293
REMARK  122  A    between atoms: _293  and  _294
REMARK  123  A    between atoms: _303  and  _305
REMARK  124  A    between atoms: _305  and  _306
REMARK  125  A    between atoms: _305  and  _308
REMARK  126  A    between atoms: _308  and  _309
REMARK  127  A    between atoms: _312  and  _314
REMARK  128  A    between atoms: _314  and  _315
REMARK  129  A    between atoms: _314  and  _317
REMARK  130  A    between atoms: _317  and  _318
REMARK  131  A    between atoms: _321  and  _323
REMARK  132  A    between atoms: _323  and  _324
REMARK  133  A    between atoms: _323  and  _326
REMARK  134  A    between atoms: _326  and  _327
REMARK  135  A    between atoms: _330  and  _332
REMARK  136  A    between atoms: _332  and  _333
REMARK  137  A    between atoms: _332  and  _335
REMARK  138  A    between atoms: _335  and  _336
REMARK  139  A    between atoms: _339  and  _341
REMARK  140  A    between atoms: _341  and  _342
REMARK  141  A    between atoms: _344  and  _346
REMARK  142  A    between atoms: _346  and  _347
REMARK  143  A    between atoms: _350  and  _352
REMARK  144  A    between atoms: _352  and  _353
REMARK  145  A    between atoms: _352  and  _355
REMARK  146  A    between atoms: _355  and  _356
REMARK  147  A    between atoms: _359  and  _361
REMARK  148  A    between atoms: _361  and  _362
REMARK  149  A    between atoms: _361  and  _364
REMARK  150  A    between atoms: _364  and  _365
REMARK  151  A    between atoms: _370  and  _372
REMARK  152  A    between atoms: _372  and  _373
REMARK  153  A    between atoms: _372  and  _375
REMARK  154  A    between atoms: _375  and  _376
REMARK  155  A    between atoms: _379  and  _381
REMARK  156  A    between atoms: _381  and  _382
REMARK  157  A    between atoms: _381  and  _384
REMARK  158  A    between atoms: _387  and  _389
REMARK  159  A    between atoms: _389  and  _390
REMARK  160  A    between atoms: _389  and  _392
REMARK  161  A    between atoms: _392  and  _393
REMARK  162  A    between atoms: _393  and  _394
REMARK  163  A    between atoms: _394  and  _395
REMARK  164  A    between atoms: _395  and  _396
REMARK  165  A    between atoms: _400  and  _402
REMARK  166  A    between atoms: _402  and  _403
REMARK  167  A    between atoms: _402  and  _405
REMARK  168  A    between atoms: _405  and  _406
REMARK  169  A    between atoms: _406  and  _407
REMARK  170  A    between atoms: _409  and  _411
REMARK  171  A    between atoms: _411  and  _412
REMARK  172  A    between atoms: _411  and  _414
REMARK  173  A    between atoms: _414  and  _415
REMARK  174  A    between atoms: _418  and  _420
REMARK  175  A    between atoms: _420  and  _421
REMARK  176  A    between atoms: _423  and  _425
REMARK  177  A    between atoms: _425  and  _426
REMARK  178  A    between atoms: _428  and  _430
REMARK  179  A    between atoms: _430  and  _431
REMARK  180  A    between atoms: _430  and  _433
REMARK  181  A    between atoms: _433  and  _434
REMARK  182  A    between atoms: _437  and  _439
REMARK  183  A    between atoms: _439  and  _440
REMARK  184  A    between atoms: _442  and  _444
REMARK  185  A    between atoms: _444  and  _445
REMARK  186  A    between atoms: _447  and  _449
REMARK  187  A    between atoms: _449  and  _450
REMARK  188  A    between atoms: _449  and  _452
REMARK  189  A    between atoms: _452  and  _453
REMARK  190  A    between atoms: _459  and  _461
REMARK  191  A    between atoms: _461  and  _462
REMARK  192  A    between atoms: _461  and  _464
REMARK  193  A    between atoms: _464  and  _465
REMARK  194  A    between atoms: _468  and  _470
REMARK  195  A    between atoms: _470  and  _471
REMARK  196  A    between atoms: _470  and  _473
REMARK  197  A    between atoms: _473  and  _474
REMARK  198  A    between atoms: _477  and  _479
REMARK  199  A    between atoms: _479  and  _480
REMARK  200  A    between atoms: _479  and  _482
REMARK  201  A    between atoms: _482  and  _483
REMARK  202  A    between atoms: _487  and  _488
REMARK  203  A    between atoms: _493  and  _495
REMARK  204  A    between atoms: _495  and  _496
REMARK  205  A    between atoms: _495  and  _498
REMARK  206  A    between atoms: _501  and  _503
REMARK  207  A    between atoms: _503  and  _504
REMARK  208  A    between atoms: _503  and  _506
REMARK  209  A    between atoms: _506  and  _507
REMARK  210  A    between atoms: _512  and  _514
REMARK  211  A    between atoms: _514  and  _515
REMARK  212  A    between atoms: _514  and  _517
REMARK  213  A    between atoms: _517  and  _518
REMARK  214  A    between atoms: _521  and  _523
REMARK  215  A    between atoms: _523  and  _524
REMARK  216  A    between atoms: _523  and  _526
REMARK  217  A    between atoms: _526  and  _527
REMARK  218  A    between atoms: _530  and  _532
REMARK  219  A    between atoms: _532  and  _533
REMARK  220  A    between atoms: _535  and  _537
REMARK  221  A    between atoms: _537  and  _538
REMARK  222  A    between atoms: _537  and  _540
REMARK  223  A    between atoms: _540  and  _541
REMARK  224  A    between atoms: _541  and  _542
REMARK  225  A    between atoms: _542  and  _543
REMARK  226  A    between atoms: _552  and  _554
REMARK  227  A    between atoms: _554  and  _555
REMARK  228  A    between atoms: _554  and  _557
REMARK  229  A    between atoms: _557  and  _558
REMARK                            x       y       z     vdW  Elec       q    Type
REMARK                         _______ _______ _______ _____ _____    ______ ____
ROOT
ATOM      1  O   HOH     1      21.110  35.740  17.674  0.00  0.00    +0.000 OA
ENDROOT
TORSDOF 0
REMARK  Name = ../refined-set-2016/2qci/2qci_pocket.pdb
REMARK  229 active torsions:
REMARK  status: ('A' for Active; 'I' for Inactive)
REMARK    1  A    between atoms: _1  and  _3
REMARK    2  A    between atoms: _3  and  _4
REMARK    3  A    between atoms: _3  and  _6
REMARK    4  A    between atoms: _6  and  _7
REMARK    5  A    between atoms: _7  and  _8
REMARK    6  A    between atoms: _8  and  _9
REMARK    7  A    between atoms: _18  and  _20
REMARK    8  A    between atoms: _20  and  _21
REMARK    9  A    between atoms: _20  and  _23
REMARK   10  A    between atoms: _23  and  _24
REMARK   11  A    between atoms: _27  and  _29
REMARK   12  A    between atoms: _29  and  _30
REMARK   13  A    between atoms: _29  and  _32
REMARK   14  A    between atoms: _32  and  _33
REMARK   15  A    between atoms: _36  and  _38
REMARK   16  A    between atoms: _38  and  _39
REMARK   17  A    between atoms: _38  and  _41
REMARK   18  A    between atoms: _41  and  _42
REMARK   19  A    between atoms: _45  and  _47
REMARK   20  A    between atoms: _47  and  _48
REMARK   21  A    between atoms: _47  and  _50
REMARK   22  A    between atoms: _50  and  _51
REMARK   23  A    between atoms: _54  and  _56
REMARK   24  A    between atoms: _56  and  _57
REMARK   25  A    between atoms: _59  and  _61
REMARK   26  A    between atoms: _61  and  _62
REMARK   27  A    between atoms: _65  and  _67
REMARK   28  A    between atoms: _67  and  _68
REMARK   29  A    between atoms: _67  and  _70
REMARK   30  A    between atoms: _70  and  _71
REMARK   31  A    between atoms: _74  and  _76
REMARK   32  A    between atoms: _76  and  _77
REMARK   33  A    between atoms: _76  and  _79
REMARK   34  A    between atoms: _79  and  _80
REMARK   35  A    between atoms: _85  and  _87
REMARK   36  A    between atoms: _87  and  _88
REMARK   37  A    between atoms: _87  and  _90
REMARK   38  A    between atoms: _90  and  _91
REMARK   39  A    between atoms: _94  and  _96
REMARK   40  A    between atoms: _96  and  _97
REMARK   41  A    between atoms: _96  and  _99
REMARK   42  A    between atoms: _102  and  _104
REMARK   43  A    between atoms: _104  and  _105
REMARK   44  A    between atoms: _104  and  _107
REMARK   45  A    between atoms: _107  and  _108
REMARK   46  A    between atoms: _108  and  _109
REMARK   47  A    between atoms: _109  and  _110
REMARK   48  A    between atoms: _110  and  _111
REMARK   49  A    between atoms: _115  and  _117
REMARK   50  A    between atoms: _117  and  _118
REMARK   51  A    between atoms: _117  and  _120
REMARK   52  A    between atoms: _120  and  _121
REMARK   53  A    between atoms: _121  and  _122
REMARK   54  A    between atoms: _124  and  _126
REMARK   55  A    between atoms: _126  and  _127
REMARK   56  A    between atoms: _126  and  _129
REMARK   57  A    between atoms: _129  and  _130
REMARK   58  A    between atoms: _133  and  _135
REMARK   59  A    between atoms: _135  and  _136
REMARK   60  A    between atoms: _138  and  _140
REMARK   61  A    between atoms: _140  and  _141
REMARK   62  A    between atoms: _143  and  _145
REMARK   63  A    between atoms: _145  and  _146
REMARK   64  A    between atoms: _145  and  _148
REMARK   65  A    between atoms: _148  and  _149
REMARK   66  A    between atoms: _152  and  _154
REMARK   67  A    between atoms: _154  and  _155
REMARK   68  A    between atoms: _157  and  _159
REMARK   69  A    between atoms: _159  and  _160
REMARK   70  A    between atoms: _162  and  _164
REMARK   71  A    between atoms: _164  and  _165
REMARK   72  A    between atoms: _164  and  _167
REMARK   73  A    between atoms: _167  and  _168
REMARK   74  A    between atoms: _174  and  _176
REMARK   75  A    between atoms: _176  and  _177
REMARK   76  A    between atoms: _176  and  _179
REMARK   77  A    between atoms: _179  and  _180
REMARK   78  A    between atoms: _183  and  _185
REMARK   79  A    between atoms: _185  and  _186
REMARK   80  A    between atoms: _185  and  _188
REMARK   81  A    between atoms: _191  and  _193
REMARK   82  A    between atoms: _193  and  _194
REMARK   83  A    between atoms: _193  and  _196
REMARK   84  A    between atoms: _196  and  _197
REMARK   85  A    between atoms: _200  and  _202
REMARK   86  A    between atoms: _202  and  _203
REMARK   87  A    between atoms: _202  and  _205
REMARK   88  A    between atoms: _205  and  _206
REMARK   89  A    between atoms: _210  and  _211
REMARK   90  A    between atoms: _216  and  _218
REMARK   91  A    between atoms: _218  and  _219
REMARK   92  A    between atoms: _218  and  _221
REMARK   93  A    between atoms: _224  and  _226
REMARK   94  A    between atoms: _226  and  _227
REMARK   95  A    between atoms: _226  and  _229
REMARK   96  A    between atoms: _229  and  _230
REMARK   97  A    between atoms: _235  and  _237
REMARK   98  A    between atoms: _237  and  _238
REMARK   99  A    between atoms: _237  and  _240
REMARK  100  A    between atoms: _240  and  _241
REMARK  101  A    between atoms: _244  and  _246
REMARK  102  A    between atoms: _246  and  _247
REMARK  103  A    between atoms: _246  and  _249
REMARK  104  A    between atoms: _249  and  _250
REMARK  105  A    between atoms: _253  and  _255
REMARK  106  A    between atoms: _255  and  _256
REMARK  107  A    between atoms: _258  and  _260
REMARK  108  A    between atoms: _260  and  _261
REMARK  109  A    between atoms: _260  and  _263
REMARK  110  A    between atoms: _263  and  _264
REMARK  111  A    between atoms: _264  and  _265
REMARK  112  A    between atoms: _265  and  _266
REMARK  113  A    between atoms: _275  and  _277
REMARK  114  A    between atoms: _277  and  _278
REMARK  115  A    between atoms: _277  and  _280
REMARK  116  A    between atoms: _280  and  _281
REMARK  117  A    between atoms: _286  and  _288
REMARK  118  A    between atoms: _288  and  _289
REMARK  119  A    between atoms: _288  and  _291
REMARK  120  A    between atoms: _291  and  _292
REMARK  121  A    between atoms: _292  and  _293
REMARK  122  A    between atoms: _293  and  _294
REMARK  123  A    between atoms: _303  and  _305
REMARK  124  A    between atoms: _305  and  _306
REMARK  125  A    between atoms: _305  and  _308
REMARK  126  A    between atoms: _308  and  _309
REMARK  127  A    between atoms: _312  and  _314
REMARK  128  A    between atoms: _314  and  _315
REMARK  129  A    between atoms: _314  and  _317
REMARK  130  A    between atoms: _317  and  _318
REMARK  131  A    between atoms: _321  and  _323
REMARK  132  A    between atoms: _323  and  _324
REMARK  133  A    between atoms: _323  and  _326
REMARK  134  A    between atoms: _326  and  _327
REMARK  135  A    between atoms: _330  and  _332
REMARK  136  A    between atoms: _332  and  _333
REMARK  137  A    between atoms: _332  and  _335
REMARK  138  A    between atoms: _335  and  _336
REMARK  139  A    between atoms: _339  and  _341
REMARK  140  A    between atoms: _341  and  _342
REMARK  141  A    between atoms: _344  and  _346
REMARK  142  A    between atoms: _346  and  _347
REMARK  143  A    between atoms: _350  and  _352
REMARK  144  A    between atoms: _352  and  _353
REMARK  145  A    between atoms: _352  and  _355
REMARK  146  A    between atoms: _355  and  _356
REMARK  147  A    between atoms: _359  and  _361
REMARK  148  A    between atoms: _361  and  _362
REMARK  149  A    between atoms: _361  and  _364
REMARK  150  A    between atoms: _364  and  _365
REMARK  151  A    between atoms: _370  and  _372
REMARK  152  A    between atoms: _372  and  _373
REMARK  153  A    between atoms: _372  and  _375
REMARK  154  A    between atoms: _375  and  _376
REMARK  155  A    between atoms: _379  and  _381
REMARK  156  A    between atoms: _381  and  _382
REMARK  157  A    between atoms: _381  and  _384
REMARK  158  A    between atoms: _387  and  _389
REMARK  159  A    between atoms: _389  and  _390
REMARK  160  A    between atoms: _389  and  _392
REMARK  161  A    between atoms: _392  and  _393
REMARK  162  A    between atoms: _393  and  _394
REMARK  163  A    between atoms: _394  and  _395
REMARK  164  A    between atoms: _395  and  _396
REMARK  165  A    between atoms: _400  and  _402
REMARK  166  A    between atoms: _402  and  _403
REMARK  167  A    between atoms: _402  and  _405
REMARK  168  A    between atoms: _405  and  _406
REMARK  169  A    between atoms: _406  and  _407
REMARK  170  A    between atoms: _409  and  _411
REMARK  171  A    between atoms: _411  and  _412
REMARK  172  A    between atoms: _411  and  _414
REMARK  173  A    between atoms: _414  and  _415
REMARK  174  A    between atoms: _418  and  _420
REMARK  175  A    between atoms: _420  and  _421
REMARK  176  A    between atoms: _423  and  _425
REMARK  177  A    between atoms: _425  and  _426
REMARK  178  A    between atoms: _428  and  _430
REMARK  179  A    between atoms: _430  and  _431
REMARK  180  A    between atoms: _430  and  _433
REMARK  181  A    between atoms: _433  and  _434
REMARK  182  A    between atoms: _437  and  _439
REMARK  183  A    between atoms: _439  and  _440
REMARK  184  A    between atoms: _442  and  _444
REMARK  185  A    between atoms: _444  and  _445
REMARK  186  A    between atoms: _447  and  _449
REMARK  187  A    between atoms: _449  and  _450
REMARK  188  A    between atoms: _449  and  _452
REMARK  189  A    between atoms: _452  and  _453
REMARK  190  A    between atoms: _459  and  _461
REMARK  191  A    between atoms: _461  and  _462
REMARK  192  A    between atoms: _461  and  _464
REMARK  193  A    between atoms: _464  and  _465
REMARK  194  A    between atoms: _468  and  _470
REMARK  195  A    between atoms: _470  and  _471
REMARK  196  A    between atoms: _470  and  _473
REMARK  197  A    between atoms: _473  and  _474
REMARK  198  A    between atoms: _477  and  _479
REMARK  199  A    between atoms: _479  and  _480
REMARK  200  A    between atoms: _479  and  _482
REMARK  201  A    between atoms: _482  and  _483
REMARK  202  A    between atoms: _487  and  _488
REMARK  203  A    between atoms: _493  and  _495
REMARK  204  A    between atoms: _495  and  _496
REMARK  205  A    between atoms: _495  and  _498
REMARK  206  A    between atoms: _501  and  _503
REMARK  207  A    between atoms: _503  and  _504
REMARK  208  A    between atoms: _503  and  _506
REMARK  209  A    between atoms: _506  and  _507
REMARK  210  A    between atoms: _512  and  _514
REMARK  211  A    between atoms: _514  and  _515
REMARK  212  A    between atoms: _514  and  _517
REMARK  213  A    between atoms: _517  and  _518
REMARK  214  A    between atoms: _521  and  _523
REMARK  215  A    between atoms: _523  and  _524
REMARK  216  A    between atoms: _523  and  _526
REMARK  217  A    between atoms: _526  and  _527
REMARK  218  A    between atoms: _530  and  _532
REMARK  219  A    between atoms: _532  and  _533
REMARK  220  A    between atoms: _535  and  _537
REMARK  221  A    between atoms: _537  and  _538
REMARK  222  A    between atoms: _537  and  _540
REMARK  223  A    between atoms: _540  and  _541
REMARK  224  A    between atoms: _541  and  _542
REMARK  225  A    between atoms: _542  and  _543
REMARK  226  A    between atoms: _552  and  _554
REMARK  227  A    between atoms: _554  and  _555
REMARK  228  A    between atoms: _554  and  _557
REMARK  229  A    between atoms: _557  and  _558
REMARK                            x       y       z     vdW  Elec       q    Type
REMARK                         _______ _______ _______ _____ _____    ______ ____
ROOT
ATOM      1  O   HOH     1      26.127  25.780  16.048  0.00  0.00    +0.000 OA
ENDROOT
TORSDOF 0
REMARK  Name = ../refined-set-2016/2qci/2qci_pocket.pdb
REMARK  229 active torsions:
REMARK  status: ('A' for Active; 'I' for Inactive)
REMARK    1  A    between atoms: _1  and  _3
REMARK    2  A    between atoms: _3  and  _4
REMARK    3  A    between atoms: _3  and  _6
REMARK    4  A    between atoms: _6  and  _7
REMARK    5  A    between atoms: _7  and  _8
REMARK    6  A    between atoms: _8  and  _9
REMARK    7  A    between atoms: _18  and  _20
REMARK    8  A    between atoms: _20  and  _21
REMARK    9  A    between atoms: _20  and  _23
REMARK   10  A    between atoms: _23  and  _24
REMARK   11  A    between atoms: _27  and  _29
REMARK   12  A    between atoms: _29  and  _30
REMARK   13  A    between atoms: _29  and  _32
REMARK   14  A    between atoms: _32  and  _33
REMARK   15  A    between atoms: _36  and  _38
REMARK   16  A    between atoms: _38  and  _39
REMARK   17  A    between atoms: _38  and  _41
REMARK   18  A    between atoms: _41  and  _42
REMARK   19  A    between atoms: _45  and  _47
REMARK   20  A    between atoms: _47  and  _48
REMARK   21  A    between atoms: _47  and  _50
REMARK   22  A    between atoms: _50  and  _51
REMARK   23  A    between atoms: _54  and  _56
REMARK   24  A    between atoms: _56  and  _57
REMARK   25  A    between atoms: _59  and  _61
REMARK   26  A    between atoms: _61  and  _62
REMARK   27  A    between atoms: _65  and  _67
REMARK   28  A    between atoms: _67  and  _68
REMARK   29  A    between atoms: _67  and  _70
REMARK   30  A    between atoms: _70  and  _71
REMARK   31  A    between atoms: _74  and  _76
REMARK   32  A    between atoms: _76  and  _77
REMARK   33  A    between atoms: _76  and  _79
REMARK   34  A    between atoms: _79  and  _80
REMARK   35  A    between atoms: _85  and  _87
REMARK   36  A    between atoms: _87  and  _88
REMARK   37  A    between atoms: _87  and  _90
REMARK   38  A    between atoms: _90  and  _91
REMARK   39  A    between atoms: _94  and  _96
REMARK   40  A    between atoms: _96  and  _97
REMARK   41  A    between atoms: _96  and  _99
REMARK   42  A    between atoms: _102  and  _104
REMARK   43  A    between atoms: _104  and  _105
REMARK   44  A    between atoms: _104  and  _107
REMARK   45  A    between atoms: _107  and  _108
REMARK   46  A    between atoms: _108  and  _109
REMARK   47  A    between atoms: _109  and  _110
REMARK   48  A    between atoms: _110  and  _111
REMARK   49  A    between atoms: _115  and  _117
REMARK   50  A    between atoms: _117  and  _118
REMARK   51  A    between atoms: _117  and  _120
REMARK   52  A    between atoms: _120  and  _121
REMARK   53  A    between atoms: _121  and  _122
REMARK   54  A    between atoms: _124  and  _126
REMARK   55  A    between atoms: _126  and  _127
REMARK   56  A    between atoms: _126  and  _129
REMARK   57  A    between atoms: _129  and  _130
REMARK   58  A    between atoms: _133  and  _135
REMARK   59  A    between atoms: _135  and  _136
REMARK   60  A    between atoms: _138  and  _140
REMARK   61  A    between atoms: _140  and  _141
REMARK   62  A    between atoms: _143  and  _145
REMARK   63  A    between atoms: _145  and  _146
REMARK   64  A    between atoms: _145  and  _148
REMARK   65  A    between atoms: _148  and  _149
REMARK   66  A    between atoms: _152  and  _154
REMARK   67  A    between atoms: _154  and  _155
REMARK   68  A    between atoms: _157  and  _159
REMARK   69  A    between atoms: _159  and  _160
REMARK   70  A    between atoms: _162  and  _164
REMARK   71  A    between atoms: _164  and  _165
REMARK   72  A    between atoms: _164  and  _167
REMARK   73  A    between atoms: _167  and  _168
REMARK   74  A    between atoms: _174  and  _176
REMARK   75  A    between atoms: _176  and  _177
REMARK   76  A    between atoms: _176  and  _179
REMARK   77  A    between atoms: _179  and  _180
REMARK   78  A    between atoms: _183  and  _185
REMARK   79  A    between atoms: _185  and  _186
REMARK   80  A    between atoms: _185  and  _188
REMARK   81  A    between atoms: _191  and  _193
REMARK   82  A    between atoms: _193  and  _194
REMARK   83  A    between atoms: _193  and  _196
REMARK   84  A    between atoms: _196  and  _197
REMARK   85  A    between atoms: _200  and  _202
REMARK   86  A    between atoms: _202  and  _203
REMARK   87  A    between atoms: _202  and  _205
REMARK   88  A    between atoms: _205  and  _206
REMARK   89  A    between atoms: _210  and  _211
REMARK   90  A    between atoms: _216  and  _218
REMARK   91  A    between atoms: _218  and  _219
REMARK   92  A    between atoms: _218  and  _221
REMARK   93  A    between atoms: _224  and  _226
REMARK   94  A    between atoms: _226  and  _227
REMARK   95  A    between atoms: _226  and  _229
REMARK   96  A    between atoms: _229  and  _230
REMARK   97  A    between atoms: _235  and  _237
REMARK   98  A    between atoms: _237  and  _238
REMARK   99  A    between atoms: _237  and  _240
REMARK  100  A    between atoms: _240  and  _241
REMARK  101  A    between atoms: _244  and  _246
REMARK  102  A    between atoms: _246  and  _247
REMARK  103  A    between atoms: _246  and  _249
REMARK  104  A    between atoms: _249  and  _250
REMARK  105  A    between atoms: _253  and  _255
REMARK  106  A    between atoms: _255  and  _256
REMARK  107  A    between atoms: _258  and  _260
REMARK  108  A    between atoms: _260  and  _261
REMARK  109  A    between atoms: _260  and  _263
REMARK  110  A    between atoms: _263  and  _264
REMARK  111  A    between atoms: _264  and  _265
REMARK  112  A    between atoms: _265  and  _266
REMARK  113  A    between atoms: _275  and  _277
REMARK  114  A    between atoms: _277  and  _278
REMARK  115  A    between atoms: _277  and  _280
REMARK  116  A    between atoms: _280  and  _281
REMARK  117  A    between atoms: _286  and  _288
REMARK  118  A    between atoms: _288  and  _289
REMARK  119  A    between atoms: _288  and  _291
REMARK  120  A    between atoms: _291  and  _292
REMARK  121  A    between atoms: _292  and  _293
REMARK  122  A    between atoms: _293  and  _294
REMARK  123  A    between atoms: _303  and  _305
REMARK  124  A    between atoms: _305  and  _306
REMARK  125  A    between atoms: _305  and  _308
REMARK  126  A    between atoms: _308  and  _309
REMARK  127  A    between atoms: _312  and  _314
REMARK  128  A    between atoms: _314  and  _315
REMARK  129  A    between atoms: _314  and  _317
REMARK  130  A    between atoms: _317  and  _318
REMARK  131  A    between atoms: _321  and  _323
REMARK  132  A    between atoms: _323  and  _324
REMARK  133  A    between atoms: _323  and  _326
REMARK  134  A    between atoms: _326  and  _327
REMARK  135  A    between atoms: _330  and  _332
REMARK  136  A    between atoms: _332  and  _333
REMARK  137  A    between atoms: _332  and  _335
REMARK  138  A    between atoms: _335  and  _336
REMARK  139  A    between atoms: _339  and  _341
REMARK  140  A    between atoms: _341  and  _342
REMARK  141  A    between atoms: _344  and  _346
REMARK  142  A    between atoms: _346  and  _347
REMARK  143  A    between atoms: _350  and  _352
REMARK  144  A    between atoms: _352  and  _353
REMARK  145  A    between atoms: _352  and  _355
REMARK  146  A    between atoms: _355  and  _356
REMARK  147  A    between atoms: _359  and  _361
REMARK  148  A    between atoms: _361  and  _362
REMARK  149  A    between atoms: _361  and  _364
REMARK  150  A    between atoms: _364  and  _365
REMARK  151  A    between atoms: _370  and  _372
REMARK  152  A    between atoms: _372  and  _373
REMARK  153  A    between atoms: _372  and  _375
REMARK  154  A    between atoms: _375  and  _376
REMARK  155  A    between atoms: _379  and  _381
REMARK  156  A    between atoms: _381  and  _382
REMARK  157  A    between atoms: _381  and  _384
REMARK  158  A    between atoms: _387  and  _389
REMARK  159  A    between atoms: _389  and  _390
REMARK  160  A    between atoms: _389  and  _392
REMARK  161  A    between atoms: _392  and  _393
REMARK  162  A    between atoms: _393  and  _394
REMARK  163  A    between atoms: _394  and  _395
REMARK  164  A    between atoms: _395  and  _396
REMARK  165  A    between atoms: _400  and  _402
REMARK  166  A    between atoms: _402  and  _403
REMARK  167  A    between atoms: _402  and  _405
REMARK  168  A    between atoms: _405  and  _406
REMARK  169  A    between atoms: _406  and  _407
REMARK  170  A    between atoms: _409  and  _411
REMARK  171  A    between atoms: _411  and  _412
REMARK  172  A    between atoms: _411  and  _414
REMARK  173  A    between atoms: _414  and  _415
REMARK  174  A    between atoms: _418  and  _420
REMARK  175  A    between atoms: _420  and  _421
REMARK  176  A    between atoms: _423  and  _425
REMARK  177  A    between atoms: _425  and  _426
REMARK  178  A    between atoms: _428  and  _430
REMARK  179  A    between atoms: _430  and  _431
REMARK  180  A    between atoms: _430  and  _433
REMARK  181  A    between atoms: _433  and  _434
REMARK  182  A    between atoms: _437  and  _439
REMARK  183  A    between atoms: _439  and  _440
REMARK  184  A    between atoms: _442  and  _444
REMARK  185  A    between atoms: _444  and  _445
REMARK  186  A    between atoms: _447  and  _449
REMARK  187  A    between atoms: _449  and  _450
REMARK  188  A    between atoms: _449  and  _452
REMARK  189  A    between atoms: _452  and  _453
REMARK  190  A    between atoms: _459  and  _461
REMARK  191  A    between atoms: _461  and  _462
REMARK  192  A    between atoms: _461  and  _464
REMARK  193  A    between atoms: _464  and  _465
REMARK  194  A    between atoms: _468  and  _470
REMARK  195  A    between atoms: _470  and  _471
REMARK  196  A    between atoms: _470  and  _473
REMARK  197  A    between atoms: _473  and  _474
REMARK  198  A    between atoms: _477  and  _479
REMARK  199  A    between atoms: _479  and  _480
REMARK  200  A    between atoms: _479  and  _482
REMARK  201  A    between atoms: _482  and  _483
REMARK  202  A    between atoms: _487  and  _488
REMARK  203  A    between atoms: _493  and  _495
REMARK  204  A    between atoms: _495  and  _496
REMARK  205  A    between atoms: _495  and  _498
REMARK  206  A    between atoms: _501  and  _503
REMARK  207  A    between atoms: _503  and  _504
REMARK  208  A    between atoms: _503  and  _506
REMARK  209  A    between atoms: _506  and  _507
REMARK  210  A    between atoms: _512  and  _514
REMARK  211  A    between atoms: _514  and  _515
REMARK  212  A    between atoms: _514  and  _517
REMARK  213  A    between atoms: _517  and  _518
REMARK  214  A    between atoms: _521  and  _523
REMARK  215  A    between atoms: _523  and  _524
REMARK  216  A    between atoms: _523  and  _526
REMARK  217  A    between atoms: _526  and  _527
REMARK  218  A    between atoms: _530  and  _532
REMARK  219  A    between atoms: _532  and  _533
REMARK  220  A    between atoms: _535  and  _537
REMARK  221  A    between atoms: _537  and  _538
REMARK  222  A    between atoms: _537  and  _540
REMARK  223  A    between atoms: _540  and  _541
REMARK  224  A    between atoms: _541  and  _542
REMARK  225  A    between atoms: _542  and  _543
REMARK  226  A    between atoms: _552  and  _554
REMARK  227  A    between atoms: _554  and  _555
REMARK  228  A    between atoms: _554  and  _557
REMARK  229  A    between atoms: _557  and  _558
REMARK                            x       y       z     vdW  Elec       q    Type
REMARK                         _______ _______ _______ _____ _____    ______ ____
ROOT
ATOM      1  O   HOH     1      25.580  34.043  11.587  0.00  0.00    +0.000 OA
ENDROOT
TORSDOF 0
REMARK  Name = ../refined-set-2016/2qci/2qci_pocket.pdb
REMARK  229 active torsions:
REMARK  status: ('A' for Active; 'I' for Inactive)
REMARK    1  A    between atoms: _1  and  _3
REMARK    2  A    between atoms: _3  and  _4
REMARK    3  A    between atoms: _3  and  _6
REMARK    4  A    between atoms: _6  and  _7
REMARK    5  A    between atoms: _7  and  _8
REMARK    6  A    between atoms: _8  and  _9
REMARK    7  A    between atoms: _18  and  _20
REMARK    8  A    between atoms: _20  and  _21
REMARK    9  A    between atoms: _20  and  _23
REMARK   10  A    between atoms: _23  and  _24
REMARK   11  A    between atoms: _27  and  _29
REMARK   12  A    between atoms: _29  and  _30
REMARK   13  A    between atoms: _29  and  _32
REMARK   14  A    between atoms: _32  and  _33
REMARK   15  A    between atoms: _36  and  _38
REMARK   16  A    between atoms: _38  and  _39
REMARK   17  A    between atoms: _38  and  _41
REMARK   18  A    between atoms: _41  and  _42
REMARK   19  A    between atoms: _45  and  _47
REMARK   20  A    between atoms: _47  and  _48
REMARK   21  A    between atoms: _47  and  _50
REMARK   22  A    between atoms: _50  and  _51
REMARK   23  A    between atoms: _54  and  _56
REMARK   24  A    between atoms: _56  and  _57
REMARK   25  A    between atoms: _59  and  _61
REMARK   26  A    between atoms: _61  and  _62
REMARK   27  A    between atoms: _65  and  _67
REMARK   28  A    between atoms: _67  and  _68
REMARK   29  A    between atoms: _67  and  _70
REMARK   30  A    between atoms: _70  and  _71
REMARK   31  A    between atoms: _74  and  _76
REMARK   32  A    between atoms: _76  and  _77
REMARK   33  A    between atoms: _76  and  _79
REMARK   34  A    between atoms: _79  and  _80
REMARK   35  A    between atoms: _85  and  _87
REMARK   36  A    between atoms: _87  and  _88
REMARK   37  A    between atoms: _87  and  _90
REMARK   38  A    between atoms: _90  and  _91
REMARK   39  A    between atoms: _94  and  _96
REMARK   40  A    between atoms: _96  and  _97
REMARK   41  A    between atoms: _96  and  _99
REMARK   42  A    between atoms: _102  and  _104
REMARK   43  A    between atoms: _104  and  _105
REMARK   44  A    between atoms: _104  and  _107
REMARK   45  A    between atoms: _107  and  _108
REMARK   46  A    between atoms: _108  and  _109
REMARK   47  A    between atoms: _109  and  _110
REMARK   48  A    between atoms: _110  and  _111
REMARK   49  A    between atoms: _115  and  _117
REMARK   50  A    between atoms: _117  and  _118
REMARK   51  A    between atoms: _117  and  _120
REMARK   52  A    between atoms: _120  and  _121
REMARK   53  A    between atoms: _121  and  _122
REMARK   54  A    between atoms: _124  and  _126
REMARK   55  A    between atoms: _126  and  _127
REMARK   56  A    between atoms: _126  and  _129
REMARK   57  A    between atoms: _129  and  _130
REMARK   58  A    between atoms: _133  and  _135
REMARK   59  A    between atoms: _135  and  _136
REMARK   60  A    between atoms: _138  and  _140
REMARK   61  A    between atoms: _140  and  _141
REMARK   62  A    between atoms: _143  and  _145
REMARK   63  A    between atoms: _145  and  _146
REMARK   64  A    between atoms: _145  and  _148
REMARK   65  A    between atoms: _148  and  _149
REMARK   66  A    between atoms: _152  and  _154
REMARK   67  A    between atoms: _154  and  _155
REMARK   68  A    between atoms: _157  and  _159
REMARK   69  A    between atoms: _159  and  _160
REMARK   70  A    between atoms: _162  and  _164
REMARK   71  A    between atoms: _164  and  _165
REMARK   72  A    between atoms: _164  and  _167
REMARK   73  A    between atoms: _167  and  _168
REMARK   74  A    between atoms: _174  and  _176
REMARK   75  A    between atoms: _176  and  _177
REMARK   76  A    between atoms: _176  and  _179
REMARK   77  A    between atoms: _179  and  _180
REMARK   78  A    between atoms: _183  and  _185
REMARK   79  A    between atoms: _185  and  _186
REMARK   80  A    between atoms: _185  and  _188
REMARK   81  A    between atoms: _191  and  _193
REMARK   82  A    between atoms: _193  and  _194
REMARK   83  A    between atoms: _193  and  _196
REMARK   84  A    between atoms: _196  and  _197
REMARK   85  A    between atoms: _200  and  _202
REMARK   86  A    between atoms: _202  and  _203
REMARK   87  A    between atoms: _202  and  _205
REMARK   88  A    between atoms: _205  and  _206
REMARK   89  A    between atoms: _210  and  _211
REMARK   90  A    between atoms: _216  and  _218
REMARK   91  A    between atoms: _218  and  _219
REMARK   92  A    between atoms: _218  and  _221
REMARK   93  A    between atoms: _224  and  _226
REMARK   94  A    between atoms: _226  and  _227
REMARK   95  A    between atoms: _226  and  _229
REMARK   96  A    between atoms: _229  and  _230
REMARK   97  A    between atoms: _235  and  _237
REMARK   98  A    between atoms: _237  and  _238
REMARK   99  A    between atoms: _237  and  _240
REMARK  100  A    between atoms: _240  and  _241
REMARK  101  A    between atoms: _244  and  _246
REMARK  102  A    between atoms: _246  and  _247
REMARK  103  A    between atoms: _246  and  _249
REMARK  104  A    between atoms: _249  and  _250
REMARK  105  A    between atoms: _253  and  _255
REMARK  106  A    between atoms: _255  and  _256
REMARK  107  A    between atoms: _258  and  _260
REMARK  108  A    between atoms: _260  and  _261
REMARK  109  A    between atoms: _260  and  _263
REMARK  110  A    between atoms: _263  and  _264
REMARK  111  A    between atoms: _264  and  _265
REMARK  112  A    between atoms: _265  and  _266
REMARK  113  A    between atoms: _275  and  _277
REMARK  114  A    between atoms: _277  and  _278
REMARK  115  A    between atoms: _277  and  _280
REMARK  116  A    between atoms: _280  and  _281
REMARK  117  A    between atoms: _286  and  _288
REMARK  118  A    between atoms: _288  and  _289
REMARK  119  A    between atoms: _288  and  _291
REMARK  120  A    between atoms: _291  and  _292
REMARK  121  A    between atoms: _292  and  _293
REMARK  122  A    between atoms: _293  and  _294
REMARK  123  A    between atoms: _303  and  _305
REMARK  124  A    between atoms: _305  and  _306
REMARK  125  A    between atoms: _305  and  _308
REMARK  126  A    between atoms: _308  and  _309
REMARK  127  A    between atoms: _312  and  _314
REMARK  128  A    between atoms: _314  and  _315
REMARK  129  A    between atoms: _314  and  _317
REMARK  130  A    between atoms: _317  and  _318
REMARK  131  A    between atoms: _321  and  _323
REMARK  132  A    between atoms: _323  and  _324
REMARK  133  A    between atoms: _323  and  _326
REMARK  134  A    between atoms: _326  and  _327
REMARK  135  A    between atoms: _330  and  _332
REMARK  136  A    between atoms: _332  and  _333
REMARK  137  A    between atoms: _332  and  _335
REMARK  138  A    between atoms: _335  and  _336
REMARK  139  A    between atoms: _339  and  _341
REMARK  140  A    between atoms: _341  and  _342
REMARK  141  A    between atoms: _344  and  _346
REMARK  142  A    between atoms: _346  and  _347
REMARK  143  A    between atoms: _350  and  _352
REMARK  144  A    between atoms: _352  and  _353
REMARK  145  A    between atoms: _352  and  _355
REMARK  146  A    between atoms: _355  and  _356
REMARK  147  A    between atoms: _359  and  _361
REMARK  148  A    between atoms: _361  and  _362
REMARK  149  A    between atoms: _361  and  _364
REMARK  150  A    between atoms: _364  and  _365
REMARK  151  A    between atoms: _370  and  _372
REMARK  152  A    between atoms: _372  and  _373
REMARK  153  A    between atoms: _372  and  _375
REMARK  154  A    between atoms: _375  and  _376
REMARK  155  A    between atoms: _379  and  _381
REMARK  156  A    between atoms: _381  and  _382
REMARK  157  A    between atoms: _381  and  _384
REMARK  158  A    between atoms: _387  and  _389
REMARK  159  A    between atoms: _389  and  _390
REMARK  160  A    between atoms: _389  and  _392
REMARK  161  A    between atoms: _392  and  _393
REMARK  162  A    between atoms: _393  and  _394
REMARK  163  A    between atoms: _394  and  _395
REMARK  164  A    between atoms: _395  and  _396
REMARK  165  A    between atoms: _400  and  _402
REMARK  166  A    between atoms: _402  and  _403
REMARK  167  A    between atoms: _402  and  _405
REMARK  168  A    between atoms: _405  and  _406
REMARK  169  A    between atoms: _406  and  _407
REMARK  170  A    between atoms: _409  and  _411
REMARK  171  A    between atoms: _411  and  _412
REMARK  172  A    between atoms: _411  and  _414
REMARK  173  A    between atoms: _414  and  _415
REMARK  174  A    between atoms: _418  and  _420
REMARK  175  A    between atoms: _420  and  _421
REMARK  176  A    between atoms: _423  and  _425
REMARK  177  A    between atoms: _425  and  _426
REMARK  178  A    between atoms: _428  and  _430
REMARK  179  A    between atoms: _430  and  _431
REMARK  180  A    between atoms: _430  and  _433
REMARK  181  A    between atoms: _433  and  _434
REMARK  182  A    between atoms: _437  and  _439
REMARK  183  A    between atoms: _439  and  _440
REMARK  184  A    between atoms: _442  and  _444
REMARK  185  A    between atoms: _444  and  _445
REMARK  186  A    between atoms: _447  and  _449
REMARK  187  A    between atoms: _449  and  _450
REMARK  188  A    between atoms: _449  and  _452
REMARK  189  A    between atoms: _452  and  _453
REMARK  190  A    between atoms: _459  and  _461
REMARK  191  A    between atoms: _461  and  _462
REMARK  192  A    between atoms: _461  and  _464
REMARK  193  A    between atoms: _464  and  _465
REMARK  194  A    between atoms: _468  and  _470
REMARK  195  A    between atoms: _470  and  _471
REMARK  196  A    between atoms: _470  and  _473
REMARK  197  A    between atoms: _473  and  _474
REMARK  198  A    between atoms: _477  and  _479
REMARK  199  A    between atoms: _479  and  _480
REMARK  200  A    between atoms: _479  and  _482
REMARK  201  A    between atoms: _482  and  _483
REMARK  202  A    between atoms: _487  and  _488
REMARK  203  A    between atoms: _493  and  _495
REMARK  204  A    between atoms: _495  and  _496
REMARK  205  A    between atoms: _495  and  _498
REMARK  206  A    between atoms: _501  and  _503
REMARK  207  A    between atoms: _503  and  _504
REMARK  208  A    between atoms: _503  and  _506
REMARK  209  A    between atoms: _506  and  _507
REMARK  210  A    between atoms: _512  and  _514
REMARK  211  A    between atoms: _514  and  _515
REMARK  212  A    between atoms: _514  and  _517
REMARK  213  A    between atoms: _517  and  _518
REMARK  214  A    between atoms: _521  and  _523
REMARK  215  A    between atoms: _523  and  _524
REMARK  216  A    between atoms: _523  and  _526
REMARK  217  A    between atoms: _526  and  _527
REMARK  218  A    between atoms: _530  and  _532
REMARK  219  A    between atoms: _532  and  _533
REMARK  220  A    between atoms: _535  and  _537
REMARK  221  A    between atoms: _537  and  _538
REMARK  222  A    between atoms: _537  and  _540
REMARK  223  A    between atoms: _540  and  _541
REMARK  224  A    between atoms: _541  and  _542
REMARK  225  A    between atoms: _542  and  _543
REMARK  226  A    between atoms: _552  and  _554
REMARK  227  A    between atoms: _554  and  _555
REMARK  228  A    between atoms: _554  and  _557
REMARK  229  A    between atoms: _557  and  _558
REMARK                            x       y       z     vdW  Elec       q    Type
REMARK                         _______ _______ _______ _____ _____    ______ ____
ROOT
ATOM      1  O   HOH     1       6.950  22.327  11.415  0.00  0.00    +0.000 OA
ENDROOT
TORSDOF 0
REMARK  Name = ../refined-set-2016/2qci/2qci_pocket.pdb
REMARK  229 active torsions:
REMARK  status: ('A' for Active; 'I' for Inactive)
REMARK    1  A    between atoms: _1  and  _3
REMARK    2  A    between atoms: _3  and  _4
REMARK    3  A    between atoms: _3  and  _6
REMARK    4  A    between atoms: _6  and  _7
REMARK    5  A    between atoms: _7  and  _8
REMARK    6  A    between atoms: _8  and  _9
REMARK    7  A    between atoms: _18  and  _20
REMARK    8  A    between atoms: _20  and  _21
REMARK    9  A    between atoms: _20  and  _23
REMARK   10  A    between atoms: _23  and  _24
REMARK   11  A    between atoms: _27  and  _29
REMARK   12  A    between atoms: _29  and  _30
REMARK   13  A    between atoms: _29  and  _32
REMARK   14  A    between atoms: _32  and  _33
REMARK   15  A    between atoms: _36  and  _38
REMARK   16  A    between atoms: _38  and  _39
REMARK   17  A    between atoms: _38  and  _41
REMARK   18  A    between atoms: _41  and  _42
REMARK   19  A    between atoms: _45  and  _47
REMARK   20  A    between atoms: _47  and  _48
REMARK   21  A    between atoms: _47  and  _50
REMARK   22  A    between atoms: _50  and  _51
REMARK   23  A    between atoms: _54  and  _56
REMARK   24  A    between atoms: _56  and  _57
REMARK   25  A    between atoms: _59  and  _61
REMARK   26  A    between atoms: _61  and  _62
REMARK   27  A    between atoms: _65  and  _67
REMARK   28  A    between atoms: _67  and  _68
REMARK   29  A    between atoms: _67  and  _70
REMARK   30  A    between atoms: _70  and  _71
REMARK   31  A    between atoms: _74  and  _76
REMARK   32  A    between atoms: _76  and  _77
REMARK   33  A    between atoms: _76  and  _79
REMARK   34  A    between atoms: _79  and  _80
REMARK   35  A    between atoms: _85  and  _87
REMARK   36  A    between atoms: _87  and  _88
REMARK   37  A    between atoms: _87  and  _90
REMARK   38  A    between atoms: _90  and  _91
REMARK   39  A    between atoms: _94  and  _96
REMARK   40  A    between atoms: _96  and  _97
REMARK   41  A    between atoms: _96  and  _99
REMARK   42  A    between atoms: _102  and  _104
REMARK   43  A    between atoms: _104  and  _105
REMARK   44  A    between atoms: _104  and  _107
REMARK   45  A    between atoms: _107  and  _108
REMARK   46  A    between atoms: _108  and  _109
REMARK   47  A    between atoms: _109  and  _110
REMARK   48  A    between atoms: _110  and  _111
REMARK   49  A    between atoms: _115  and  _117
REMARK   50  A    between atoms: _117  and  _118
REMARK   51  A    between atoms: _117  and  _120
REMARK   52  A    between atoms: _120  and  _121
REMARK   53  A    between atoms: _121  and  _122
REMARK   54  A    between atoms: _124  and  _126
REMARK   55  A    between atoms: _126  and  _127
REMARK   56  A    between atoms: _126  and  _129
REMARK   57  A    between atoms: _129  and  _130
REMARK   58  A    between atoms: _133  and  _135
REMARK   59  A    between atoms: _135  and  _136
REMARK   60  A    between atoms: _138  and  _140
REMARK   61  A    between atoms: _140  and  _141
REMARK   62  A    between atoms: _143  and  _145
REMARK   63  A    between atoms: _145  and  _146
REMARK   64  A    between atoms: _145  and  _148
REMARK   65  A    between atoms: _148  and  _149
REMARK   66  A    between atoms: _152  and  _154
REMARK   67  A    between atoms: _154  and  _155
REMARK   68  A    between atoms: _157  and  _159
REMARK   69  A    between atoms: _159  and  _160
REMARK   70  A    between atoms: _162  and  _164
REMARK   71  A    between atoms: _164  and  _165
REMARK   72  A    between atoms: _164  and  _167
REMARK   73  A    between atoms: _167  and  _168
REMARK   74  A    between atoms: _174  and  _176
REMARK   75  A    between atoms: _176  and  _177
REMARK   76  A    between atoms: _176  and  _179
REMARK   77  A    between atoms: _179  and  _180
REMARK   78  A    between atoms: _183  and  _185
REMARK   79  A    between atoms: _185  and  _186
REMARK   80  A    between atoms: _185  and  _188
REMARK   81  A    between atoms: _191  and  _193
REMARK   82  A    between atoms: _193  and  _194
REMARK   83  A    between atoms: _193  and  _196
REMARK   84  A    between atoms: _196  and  _197
REMARK   85  A    between atoms: _200  and  _202
REMARK   86  A    between atoms: _202  and  _203
REMARK   87  A    between atoms: _202  and  _205
REMARK   88  A    between atoms: _205  and  _206
REMARK   89  A    between atoms: _210  and  _211
REMARK   90  A    between atoms: _216  and  _218
REMARK   91  A    between atoms: _218  and  _219
REMARK   92  A    between atoms: _218  and  _221
REMARK   93  A    between atoms: _224  and  _226
REMARK   94  A    between atoms: _226  and  _227
REMARK   95  A    between atoms: _226  and  _229
REMARK   96  A    between atoms: _229  and  _230
REMARK   97  A    between atoms: _235  and  _237
REMARK   98  A    between atoms: _237  and  _238
REMARK   99  A    between atoms: _237  and  _240
REMARK  100  A    between atoms: _240  and  _241
REMARK  101  A    between atoms: _244  and  _246
REMARK  102  A    between atoms: _246  and  _247
REMARK  103  A    between atoms: _246  and  _249
REMARK  104  A    between atoms: _249  and  _250
REMARK  105  A    between atoms: _253  and  _255
REMARK  106  A    between atoms: _255  and  _256
REMARK  107  A    between atoms: _258  and  _260
REMARK  108  A    between atoms: _260  and  _261
REMARK  109  A    between atoms: _260  and  _263
REMARK  110  A    between atoms: _263  and  _264
REMARK  111  A    between atoms: _264  and  _265
REMARK  112  A    between atoms: _265  and  _266
REMARK  113  A    between atoms: _275  and  _277
REMARK  114  A    between atoms: _277  and  _278
REMARK  115  A    between atoms: _277  and  _280
REMARK  116  A    between atoms: _280  and  _281
REMARK  117  A    between atoms: _286  and  _288
REMARK  118  A    between atoms: _288  and  _289
REMARK  119  A    between atoms: _288  and  _291
REMARK  120  A    between atoms: _291  and  _292
REMARK  121  A    between atoms: _292  and  _293
REMARK  122  A    between atoms: _293  and  _294
REMARK  123  A    between atoms: _303  and  _305
REMARK  124  A    between atoms: _305  and  _306
REMARK  125  A    between atoms: _305  and  _308
REMARK  126  A    between atoms: _308  and  _309
REMARK  127  A    between atoms: _312  and  _314
REMARK  128  A    between atoms: _314  and  _315
REMARK  129  A    between atoms: _314  and  _317
REMARK  130  A    between atoms: _317  and  _318
REMARK  131  A    between atoms: _321  and  _323
REMARK  132  A    between atoms: _323  and  _324
REMARK  133  A    between atoms: _323  and  _326
REMARK  134  A    between atoms: _326  and  _327
REMARK  135  A    between atoms: _330  and  _332
REMARK  136  A    between atoms: _332  and  _333
REMARK  137  A    between atoms: _332  and  _335
REMARK  138  A    between atoms: _335  and  _336
REMARK  139  A    between atoms: _339  and  _341
REMARK  140  A    between atoms: _341  and  _342
REMARK  141  A    between atoms: _344  and  _346
REMARK  142  A    between atoms: _346  and  _347
REMARK  143  A    between atoms: _350  and  _352
REMARK  144  A    between atoms: _352  and  _353
REMARK  145  A    between atoms: _352  and  _355
REMARK  146  A    between atoms: _355  and  _356
REMARK  147  A    between atoms: _359  and  _361
REMARK  148  A    between atoms: _361  and  _362
REMARK  149  A    between atoms: _361  and  _364
REMARK  150  A    between atoms: _364  and  _365
REMARK  151  A    between atoms: _370  and  _372
REMARK  152  A    between atoms: _372  and  _373
REMARK  153  A    between atoms: _372  and  _375
REMARK  154  A    between atoms: _375  and  _376
REMARK  155  A    between atoms: _379  and  _381
REMARK  156  A    between atoms: _381  and  _382
REMARK  157  A    between atoms: _381  and  _384
REMARK  158  A    between atoms: _387  and  _389
REMARK  159  A    between atoms: _389  and  _390
REMARK  160  A    between atoms: _389  and  _392
REMARK  161  A    between atoms: _392  and  _393
REMARK  162  A    between atoms: _393  and  _394
REMARK  163  A    between atoms: _394  and  _395
REMARK  164  A    between atoms: _395  and  _396
REMARK  165  A    between atoms: _400  and  _402
REMARK  166  A    between atoms: _402  and  _403
REMARK  167  A    between atoms: _402  and  _405
REMARK  168  A    between atoms: _405  and  _406
REMARK  169  A    between atoms: _406  and  _407
REMARK  170  A    between atoms: _409  and  _411
REMARK  171  A    between atoms: _411  and  _412
REMARK  172  A    between atoms: _411  and  _414
REMARK  173  A    between atoms: _414  and  _415
REMARK  174  A    between atoms: _418  and  _420
REMARK  175  A    between atoms: _420  and  _421
REMARK  176  A    between atoms: _423  and  _425
REMARK  177  A    between atoms: _425  and  _426
REMARK  178  A    between atoms: _428  and  _430
REMARK  179  A    between atoms: _430  and  _431
REMARK  180  A    between atoms: _430  and  _433
REMARK  181  A    between atoms: _433  and  _434
REMARK  182  A    between atoms: _437  and  _439
REMARK  183  A    between atoms: _439  and  _440
REMARK  184  A    between atoms: _442  and  _444
REMARK  185  A    between atoms: _444  and  _445
REMARK  186  A    between atoms: _447  and  _449
REMARK  187  A    between atoms: _449  and  _450
REMARK  188  A    between atoms: _449  and  _452
REMARK  189  A    between atoms: _452  and  _453
REMARK  190  A    between atoms: _459  and  _461
REMARK  191  A    between atoms: _461  and  _462
REMARK  192  A    between atoms: _461  and  _464
REMARK  193  A    between atoms: _464  and  _465
REMARK  194  A    between atoms: _468  and  _470
REMARK  195  A    between atoms: _470  and  _471
REMARK  196  A    between atoms: _470  and  _473
REMARK  197  A    between atoms: _473  and  _474
REMARK  198  A    between atoms: _477  and  _479
REMARK  199  A    between atoms: _479  and  _480
REMARK  200  A    between atoms: _479  and  _482
REMARK  201  A    between atoms: _482  and  _483
REMARK  202  A    between atoms: _487  and  _488
REMARK  203  A    between atoms: _493  and  _495
REMARK  204  A    between atoms: _495  and  _496
REMARK  205  A    between atoms: _495  and  _498
REMARK  206  A    between atoms: _501  and  _503
REMARK  207  A    between atoms: _503  and  _504
REMARK  208  A    between atoms: _503  and  _506
REMARK  209  A    between atoms: _506  and  _507
REMARK  210  A    between atoms: _512  and  _514
REMARK  211  A    between atoms: _514  and  _515
REMARK  212  A    between atoms: _514  and  _517
REMARK  213  A    between atoms: _517  and  _518
REMARK  214  A    between atoms: _521  and  _523
REMARK  215  A    between atoms: _523  and  _524
REMARK  216  A    between atoms: _523  and  _526
REMARK  217  A    between atoms: _526  and  _527
REMARK  218  A    between atoms: _530  and  _532
REMARK  219  A    between atoms: _532  and  _533
REMARK  220  A    between atoms: _535  and  _537
REMARK  221  A    between atoms: _537  and  _538
REMARK  222  A    between atoms: _537  and  _540
REMARK  223  A    between atoms: _540  and  _541
REMARK  224  A    between atoms: _541  and  _542
REMARK  225  A    between atoms: _542  and  _543
REMARK  226  A    between atoms: _552  and  _554
REMARK  227  A    between atoms: _554  and  _555
REMARK  228  A    between atoms: _554  and  _557
REMARK  229  A    between atoms: _557  and  _558
REMARK                            x       y       z     vdW  Elec       q    Type
REMARK                         _______ _______ _______ _____ _____    ______ ____
ROOT
ATOM      1  O   HOH     1      22.692  35.911  12.789  0.00  0.00    +0.000 OA
ENDROOT
TORSDOF 0
REMARK  Name = ../refined-set-2016/2qci/2qci_pocket.pdb
REMARK  229 active torsions:
REMARK  status: ('A' for Active; 'I' for Inactive)
REMARK    1  A    between atoms: _1  and  _3
REMARK    2  A    between atoms: _3  and  _4
REMARK    3  A    between atoms: _3  and  _6
REMARK    4  A    between atoms: _6  and  _7
REMARK    5  A    between atoms: _7  and  _8
REMARK    6  A    between atoms: _8  and  _9
REMARK    7  A    between atoms: _18  and  _20
REMARK    8  A    between atoms: _20  and  _21
REMARK    9  A    between atoms: _20  and  _23
REMARK   10  A    between atoms: _23  and  _24
REMARK   11  A    between atoms: _27  and  _29
REMARK   12  A    between atoms: _29  and  _30
REMARK   13  A    between atoms: _29  and  _32
REMARK   14  A    between atoms: _32  and  _33
REMARK   15  A    between atoms: _36  and  _38
REMARK   16  A    between atoms: _38  and  _39
REMARK   17  A    between atoms: _38  and  _41
REMARK   18  A    between atoms: _41  and  _42
REMARK   19  A    between atoms: _45  and  _47
REMARK   20  A    between atoms: _47  and  _48
REMARK   21  A    between atoms: _47  and  _50
REMARK   22  A    between atoms: _50  and  _51
REMARK   23  A    between atoms: _54  and  _56
REMARK   24  A    between atoms: _56  and  _57
REMARK   25  A    between atoms: _59  and  _61
REMARK   26  A    between atoms: _61  and  _62
REMARK   27  A    between atoms: _65  and  _67
REMARK   28  A    between atoms: _67  and  _68
REMARK   29  A    between atoms: _67  and  _70
REMARK   30  A    between atoms: _70  and  _71
REMARK   31  A    between atoms: _74  and  _76
REMARK   32  A    between atoms: _76  and  _77
REMARK   33  A    between atoms: _76  and  _79
REMARK   34  A    between atoms: _79  and  _80
REMARK   35  A    between atoms: _85  and  _87
REMARK   36  A    between atoms: _87  and  _88
REMARK   37  A    between atoms: _87  and  _90
REMARK   38  A    between atoms: _90  and  _91
REMARK   39  A    between atoms: _94  and  _96
REMARK   40  A    between atoms: _96  and  _97
REMARK   41  A    between atoms: _96  and  _99
REMARK   42  A    between atoms: _102  and  _104
REMARK   43  A    between atoms: _104  and  _105
REMARK   44  A    between atoms: _104  and  _107
REMARK   45  A    between atoms: _107  and  _108
REMARK   46  A    between atoms: _108  and  _109
REMARK   47  A    between atoms: _109  and  _110
REMARK   48  A    between atoms: _110  and  _111
REMARK   49  A    between atoms: _115  and  _117
REMARK   50  A    between atoms: _117  and  _118
REMARK   51  A    between atoms: _117  and  _120
REMARK   52  A    between atoms: _120  and  _121
REMARK   53  A    between atoms: _121  and  _122
REMARK   54  A    between atoms: _124  and  _126
REMARK   55  A    between atoms: _126  and  _127
REMARK   56  A    between atoms: _126  and  _129
REMARK   57  A    between atoms: _129  and  _130
REMARK   58  A    between atoms: _133  and  _135
REMARK   59  A    between atoms: _135  and  _136
REMARK   60  A    between atoms: _138  and  _140
REMARK   61  A    between atoms: _140  and  _141
REMARK   62  A    between atoms: _143  and  _145
REMARK   63  A    between atoms: _145  and  _146
REMARK   64  A    between atoms: _145  and  _148
REMARK   65  A    between atoms: _148  and  _149
REMARK   66  A    between atoms: _152  and  _154
REMARK   67  A    between atoms: _154  and  _155
REMARK   68  A    between atoms: _157  and  _159
REMARK   69  A    between atoms: _159  and  _160
REMARK   70  A    between atoms: _162  and  _164
REMARK   71  A    between atoms: _164  and  _165
REMARK   72  A    between atoms: _164  and  _167
REMARK   73  A    between atoms: _167  and  _168
REMARK   74  A    between atoms: _174  and  _176
REMARK   75  A    between atoms: _176  and  _177
REMARK   76  A    between atoms: _176  and  _179
REMARK   77  A    between atoms: _179  and  _180
REMARK   78  A    between atoms: _183  and  _185
REMARK   79  A    between atoms: _185  and  _186
REMARK   80  A    between atoms: _185  and  _188
REMARK   81  A    between atoms: _191  and  _193
REMARK   82  A    between atoms: _193  and  _194
REMARK   83  A    between atoms: _193  and  _196
REMARK   84  A    between atoms: _196  and  _197
REMARK   85  A    between atoms: _200  and  _202
REMARK   86  A    between atoms: _202  and  _203
REMARK   87  A    between atoms: _202  and  _205
REMARK   88  A    between atoms: _205  and  _206
REMARK   89  A    between atoms: _210  and  _211
REMARK   90  A    between atoms: _216  and  _218
REMARK   91  A    between atoms: _218  and  _219
REMARK   92  A    between atoms: _218  and  _221
REMARK   93  A    between atoms: _224  and  _226
REMARK   94  A    between atoms: _226  and  _227
REMARK   95  A    between atoms: _226  and  _229
REMARK   96  A    between atoms: _229  and  _230
REMARK   97  A    between atoms: _235  and  _237
REMARK   98  A    between atoms: _237  and  _238
REMARK   99  A    between atoms: _237  and  _240
REMARK  100  A    between atoms: _240  and  _241
REMARK  101  A    between atoms: _244  and  _246
REMARK  102  A    between atoms: _246  and  _247
REMARK  103  A    between atoms: _246  and  _249
REMARK  104  A    between atoms: _249  and  _250
REMARK  105  A    between atoms: _253  and  _255
REMARK  106  A    between atoms: _255  and  _256
REMARK  107  A    between atoms: _258  and  _260
REMARK  108  A    between atoms: _260  and  _261
REMARK  109  A    between atoms: _260  and  _263
REMARK  110  A    between atoms: _263  and  _264
REMARK  111  A    between atoms: _264  and  _265
REMARK  112  A    between atoms: _265  and  _266
REMARK  113  A    between atoms: _275  and  _277
REMARK  114  A    between atoms: _277  and  _278
REMARK  115  A    between atoms: _277  and  _280
REMARK  116  A    between atoms: _280  and  _281
REMARK  117  A    between atoms: _286  and  _288
REMARK  118  A    between atoms: _288  and  _289
REMARK  119  A    between atoms: _288  and  _291
REMARK  120  A    between atoms: _291  and  _292
REMARK  121  A    between atoms: _292  and  _293
REMARK  122  A    between atoms: _293  and  _294
REMARK  123  A    between atoms: _303  and  _305
REMARK  124  A    between atoms: _305  and  _306
REMARK  125  A    between atoms: _305  and  _308
REMARK  126  A    between atoms: _308  and  _309
REMARK  127  A    between atoms: _312  and  _314
REMARK  128  A    between atoms: _314  and  _315
REMARK  129  A    between atoms: _314  and  _317
REMARK  130  A    between atoms: _317  and  _318
REMARK  131  A    between atoms: _321  and  _323
REMARK  132  A    between atoms: _323  and  _324
REMARK  133  A    between atoms: _323  and  _326
REMARK  134  A    between atoms: _326  and  _327
REMARK  135  A    between atoms: _330  and  _332
REMARK  136  A    between atoms: _332  and  _333
REMARK  137  A    between atoms: _332  and  _335
REMARK  138  A    between atoms: _335  and  _336
REMARK  139  A    between atoms: _339  and  _341
REMARK  140  A    between atoms: _341  and  _342
REMARK  141  A    between atoms: _344  and  _346
REMARK  142  A    between atoms: _346  and  _347
REMARK  143  A    between atoms: _350  and  _352
REMARK  144  A    between atoms: _352  and  _353
REMARK  145  A    between atoms: _352  and  _355
REMARK  146  A    between atoms: _355  and  _356
REMARK  147  A    between atoms: _359  and  _361
REMARK  148  A    between atoms: _361  and  _362
REMARK  149  A    between atoms: _361  and  _364
REMARK  150  A    between atoms: _364  and  _365
REMARK  151  A    between atoms: _370  and  _372
REMARK  152  A    between atoms: _372  and  _373
REMARK  153  A    between atoms: _372  and  _375
REMARK  154  A    between atoms: _375  and  _376
REMARK  155  A    between atoms: _379  and  _381
REMARK  156  A    between atoms: _381  and  _382
REMARK  157  A    between atoms: _381  and  _384
REMARK  158  A    between atoms: _387  and  _389
REMARK  159  A    between atoms: _389  and  _390
REMARK  160  A    between atoms: _389  and  _392
REMARK  161  A    between atoms: _392  and  _393
REMARK  162  A    between atoms: _393  and  _394
REMARK  163  A    between atoms: _394  and  _395
REMARK  164  A    between atoms: _395  and  _396
REMARK  165  A    between atoms: _400  and  _402
REMARK  166  A    between atoms: _402  and  _403
REMARK  167  A    between atoms: _402  and  _405
REMARK  168  A    between atoms: _405  and  _406
REMARK  169  A    between atoms: _406  and  _407
REMARK  170  A    between atoms: _409  and  _411
REMARK  171  A    between atoms: _411  and  _412
REMARK  172  A    between atoms: _411  and  _414
REMARK  173  A    between atoms: _414  and  _415
REMARK  174  A    between atoms: _418  and  _420
REMARK  175  A    between atoms: _420  and  _421
REMARK  176  A    between atoms: _423  and  _425
REMARK  177  A    between atoms: _425  and  _426
REMARK  178  A    between atoms: _428  and  _430
REMARK  179  A    between atoms: _430  and  _431
REMARK  180  A    between atoms: _430  and  _433
REMARK  181  A    between atoms: _433  and  _434
REMARK  182  A    between atoms: _437  and  _439
REMARK  183  A    between atoms: _439  and  _440
REMARK  184  A    between atoms: _442  and  _444
REMARK  185  A    between atoms: _444  and  _445
REMARK  186  A    between atoms: _447  and  _449
REMARK  187  A    between atoms: _449  and  _450
REMARK  188  A    between atoms: _449  and  _452
REMARK  189  A    between atoms: _452  and  _453
REMARK  190  A    between atoms: _459  and  _461
REMARK  191  A    between atoms: _461  and  _462
REMARK  192  A    between atoms: _461  and  _464
REMARK  193  A    between atoms: _464  and  _465
REMARK  194  A    between atoms: _468  and  _470
REMARK  195  A    between atoms: _470  and  _471
REMARK  196  A    between atoms: _470  and  _473
REMARK  197  A    between atoms: _473  and  _474
REMARK  198  A    between atoms: _477  and  _479
REMARK  199  A    between atoms: _479  and  _480
REMARK  200  A    between atoms: _479  and  _482
REMARK  201  A    between atoms: _482  and  _483
REMARK  202  A    between atoms: _487  and  _488
REMARK  203  A    between atoms: _493  and  _495
REMARK  204  A    between atoms: _495  and  _496
REMARK  205  A    between atoms: _495  and  _498
REMARK  206  A    between atoms: _501  and  _503
REMARK  207  A    between atoms: _503  and  _504
REMARK  208  A    between atoms: _503  and  _506
REMARK  209  A    between atoms: _506  and  _507
REMARK  210  A    between atoms: _512  and  _514
REMARK  211  A    between atoms: _514  and  _515
REMARK  212  A    between atoms: _514  and  _517
REMARK  213  A    between atoms: _517  and  _518
REMARK  214  A    between atoms: _521  and  _523
REMARK  215  A    between atoms: _523  and  _524
REMARK  216  A    between atoms: _523  and  _526
REMARK  217  A    between atoms: _526  and  _527
REMARK  218  A    between atoms: _530  and  _532
REMARK  219  A    between atoms: _532  and  _533
REMARK  220  A    between atoms: _535  and  _537
REMARK  221  A    between atoms: _537  and  _538
REMARK  222  A    between atoms: _537  and  _540
REMARK  223  A    between atoms: _540  and  _541
REMARK  224  A    between atoms: _541  and  _542
REMARK  225  A    between atoms: _542  and  _543
REMARK  226  A    between atoms: _552  and  _554
REMARK  227  A    between atoms: _554  and  _555
REMARK  228  A    between atoms: _554  and  _557
REMARK  229  A    between atoms: _557  and  _558
REMARK                            x       y       z     vdW  Elec       q    Type
REMARK                         _______ _______ _______ _____ _____    ______ ____
ROOT
ATOM      1  O   HOH     1      30.198  29.749  13.035  0.00  0.00    +0.000 OA
ENDROOT
TORSDOF 0
REMARK  Name = ../refined-set-2016/2qci/2qci_pocket.pdb
REMARK  229 active torsions:
REMARK  status: ('A' for Active; 'I' for Inactive)
REMARK    1  A    between atoms: _1  and  _3
REMARK    2  A    between atoms: _3  and  _4
REMARK    3  A    between atoms: _3  and  _6
REMARK    4  A    between atoms: _6  and  _7
REMARK    5  A    between atoms: _7  and  _8
REMARK    6  A    between atoms: _8  and  _9
REMARK    7  A    between atoms: _18  and  _20
REMARK    8  A    between atoms: _20  and  _21
REMARK    9  A    between atoms: _20  and  _23
REMARK   10  A    between atoms: _23  and  _24
REMARK   11  A    between atoms: _27  and  _29
REMARK   12  A    between atoms: _29  and  _30
REMARK   13  A    between atoms: _29  and  _32
REMARK   14  A    between atoms: _32  and  _33
REMARK   15  A    between atoms: _36  and  _38
REMARK   16  A    between atoms: _38  and  _39
REMARK   17  A    between atoms: _38  and  _41
REMARK   18  A    between atoms: _41  and  _42
REMARK   19  A    between atoms: _45  and  _47
REMARK   20  A    between atoms: _47  and  _48
REMARK   21  A    between atoms: _47  and  _50
REMARK   22  A    between atoms: _50  and  _51
REMARK   23  A    between atoms: _54  and  _56
REMARK   24  A    between atoms: _56  and  _57
REMARK   25  A    between atoms: _59  and  _61
REMARK   26  A    between atoms: _61  and  _62
REMARK   27  A    between atoms: _65  and  _67
REMARK   28  A    between atoms: _67  and  _68
REMARK   29  A    between atoms: _67  and  _70
REMARK   30  A    between atoms: _70  and  _71
REMARK   31  A    between atoms: _74  and  _76
REMARK   32  A    between atoms: _76  and  _77
REMARK   33  A    between atoms: _76  and  _79
REMARK   34  A    between atoms: _79  and  _80
REMARK   35  A    between atoms: _85  and  _87
REMARK   36  A    between atoms: _87  and  _88
REMARK   37  A    between atoms: _87  and  _90
REMARK   38  A    between atoms: _90  and  _91
REMARK   39  A    between atoms: _94  and  _96
REMARK   40  A    between atoms: _96  and  _97
REMARK   41  A    between atoms: _96  and  _99
REMARK   42  A    between atoms: _102  and  _104
REMARK   43  A    between atoms: _104  and  _105
REMARK   44  A    between atoms: _104  and  _107
REMARK   45  A    between atoms: _107  and  _108
REMARK   46  A    between atoms: _108  and  _109
REMARK   47  A    between atoms: _109  and  _110
REMARK   48  A    between atoms: _110  and  _111
REMARK   49  A    between atoms: _115  and  _117
REMARK   50  A    between atoms: _117  and  _118
REMARK   51  A    between atoms: _117  and  _120
REMARK   52  A    between atoms: _120  and  _121
REMARK   53  A    between atoms: _121  and  _122
REMARK   54  A    between atoms: _124  and  _126
REMARK   55  A    between atoms: _126  and  _127
REMARK   56  A    between atoms: _126  and  _129
REMARK   57  A    between atoms: _129  and  _130
REMARK   58  A    between atoms: _133  and  _135
REMARK   59  A    between atoms: _135  and  _136
REMARK   60  A    between atoms: _138  and  _140
REMARK   61  A    between atoms: _140  and  _141
REMARK   62  A    between atoms: _143  and  _145
REMARK   63  A    between atoms: _145  and  _146
REMARK   64  A    between atoms: _145  and  _148
REMARK   65  A    between atoms: _148  and  _149
REMARK   66  A    between atoms: _152  and  _154
REMARK   67  A    between atoms: _154  and  _155
REMARK   68  A    between atoms: _157  and  _159
REMARK   69  A    between atoms: _159  and  _160
REMARK   70  A    between atoms: _162  and  _164
REMARK   71  A    between atoms: _164  and  _165
REMARK   72  A    between atoms: _164  and  _167
REMARK   73  A    between atoms: _167  and  _168
REMARK   74  A    between atoms: _174  and  _176
REMARK   75  A    between atoms: _176  and  _177
REMARK   76  A    between atoms: _176  and  _179
REMARK   77  A    between atoms: _179  and  _180
REMARK   78  A    between atoms: _183  and  _185
REMARK   79  A    between atoms: _185  and  _186
REMARK   80  A    between atoms: _185  and  _188
REMARK   81  A    between atoms: _191  and  _193
REMARK   82  A    between atoms: _193  and  _194
REMARK   83  A    between atoms: _193  and  _196
REMARK   84  A    between atoms: _196  and  _197
REMARK   85  A    between atoms: _200  and  _202
REMARK   86  A    between atoms: _202  and  _203
REMARK   87  A    between atoms: _202  and  _205
REMARK   88  A    between atoms: _205  and  _206
REMARK   89  A    between atoms: _210  and  _211
REMARK   90  A    between atoms: _216  and  _218
REMARK   91  A    between atoms: _218  and  _219
REMARK   92  A    between atoms: _218  and  _221
REMARK   93  A    between atoms: _224  and  _226
REMARK   94  A    between atoms: _226  and  _227
REMARK   95  A    between atoms: _226  and  _229
REMARK   96  A    between atoms: _229  and  _230
REMARK   97  A    between atoms: _235  and  _237
REMARK   98  A    between atoms: _237  and  _238
REMARK   99  A    between atoms: _237  and  _240
REMARK  100  A    between atoms: _240  and  _241
REMARK  101  A    between atoms: _244  and  _246
REMARK  102  A    between atoms: _246  and  _247
REMARK  103  A    between atoms: _246  and  _249
REMARK  104  A    between atoms: _249  and  _250
REMARK  105  A    between atoms: _253  and  _255
REMARK  106  A    between atoms: _255  and  _256
REMARK  107  A    between atoms: _258  and  _260
REMARK  108  A    between atoms: _260  and  _261
REMARK  109  A    between atoms: _260  and  _263
REMARK  110  A    between atoms: _263  and  _264
REMARK  111  A    between atoms: _264  and  _265
REMARK  112  A    between atoms: _265  and  _266
REMARK  113  A    between atoms: _275  and  _277
REMARK  114  A    between atoms: _277  and  _278
REMARK  115  A    between atoms: _277  and  _280
REMARK  116  A    between atoms: _280  and  _281
REMARK  117  A    between atoms: _286  and  _288
REMARK  118  A    between atoms: _288  and  _289
REMARK  119  A    between atoms: _288  and  _291
REMARK  120  A    between atoms: _291  and  _292
REMARK  121  A    between atoms: _292  and  _293
REMARK  122  A    between atoms: _293  and  _294
REMARK  123  A    between atoms: _303  and  _305
REMARK  124  A    between atoms: _305  and  _306
REMARK  125  A    between atoms: _305  and  _308
REMARK  126  A    between atoms: _308  and  _309
REMARK  127  A    between atoms: _312  and  _314
REMARK  128  A    between atoms: _314  and  _315
REMARK  129  A    between atoms: _314  and  _317
REMARK  130  A    between atoms: _317  and  _318
REMARK  131  A    between atoms: _321  and  _323
REMARK  132  A    between atoms: _323  and  _324
REMARK  133  A    between atoms: _323  and  _326
REMARK  134  A    between atoms: _326  and  _327
REMARK  135  A    between atoms: _330  and  _332
REMARK  136  A    between atoms: _332  and  _333
REMARK  137  A    between atoms: _332  and  _335
REMARK  138  A    between atoms: _335  and  _336
REMARK  139  A    between atoms: _339  and  _341
REMARK  140  A    between atoms: _341  and  _342
REMARK  141  A    between atoms: _344  and  _346
REMARK  142  A    between atoms: _346  and  _347
REMARK  143  A    between atoms: _350  and  _352
REMARK  144  A    between atoms: _352  and  _353
REMARK  145  A    between atoms: _352  and  _355
REMARK  146  A    between atoms: _355  and  _356
REMARK  147  A    between atoms: _359  and  _361
REMARK  148  A    between atoms: _361  and  _362
REMARK  149  A    between atoms: _361  and  _364
REMARK  150  A    between atoms: _364  and  _365
REMARK  151  A    between atoms: _370  and  _372
REMARK  152  A    between atoms: _372  and  _373
REMARK  153  A    between atoms: _372  and  _375
REMARK  154  A    between atoms: _375  and  _376
REMARK  155  A    between atoms: _379  and  _381
REMARK  156  A    between atoms: _381  and  _382
REMARK  157  A    between atoms: _381  and  _384
REMARK  158  A    between atoms: _387  and  _389
REMARK  159  A    between atoms: _389  and  _390
REMARK  160  A    between atoms: _389  and  _392
REMARK  161  A    between atoms: _392  and  _393
REMARK  162  A    between atoms: _393  and  _394
REMARK  163  A    between atoms: _394  and  _395
REMARK  164  A    between atoms: _395  and  _396
REMARK  165  A    between atoms: _400  and  _402
REMARK  166  A    between atoms: _402  and  _403
REMARK  167  A    between atoms: _402  and  _405
REMARK  168  A    between atoms: _405  and  _406
REMARK  169  A    between atoms: _406  and  _407
REMARK  170  A    between atoms: _409  and  _411
REMARK  171  A    between atoms: _411  and  _412
REMARK  172  A    between atoms: _411  and  _414
REMARK  173  A    between atoms: _414  and  _415
REMARK  174  A    between atoms: _418  and  _420
REMARK  175  A    between atoms: _420  and  _421
REMARK  176  A    between atoms: _423  and  _425
REMARK  177  A    between atoms: _425  and  _426
REMARK  178  A    between atoms: _428  and  _430
REMARK  179  A    between atoms: _430  and  _431
REMARK  180  A    between atoms: _430  and  _433
REMARK  181  A    between atoms: _433  and  _434
REMARK  182  A    between atoms: _437  and  _439
REMARK  183  A    between atoms: _439  and  _440
REMARK  184  A    between atoms: _442  and  _444
REMARK  185  A    between atoms: _444  and  _445
REMARK  186  A    between atoms: _447  and  _449
REMARK  187  A    between atoms: _449  and  _450
REMARK  188  A    between atoms: _449  and  _452
REMARK  189  A    between atoms: _452  and  _453
REMARK  190  A    between atoms: _459  and  _461
REMARK  191  A    between atoms: _461  and  _462
REMARK  192  A    between atoms: _461  and  _464
REMARK  193  A    between atoms: _464  and  _465
REMARK  194  A    between atoms: _468  and  _470
REMARK  195  A    between atoms: _470  and  _471
REMARK  196  A    between atoms: _470  and  _473
REMARK  197  A    between atoms: _473  and  _474
REMARK  198  A    between atoms: _477  and  _479
REMARK  199  A    between atoms: _479  and  _480
REMARK  200  A    between atoms: _479  and  _482
REMARK  201  A    between atoms: _482  and  _483
REMARK  202  A    between atoms: _487  and  _488
REMARK  203  A    between atoms: _493  and  _495
REMARK  204  A    between atoms: _495  and  _496
REMARK  205  A    between atoms: _495  and  _498
REMARK  206  A    between atoms: _501  and  _503
REMARK  207  A    between atoms: _503  and  _504
REMARK  208  A    between atoms: _503  and  _506
REMARK  209  A    between atoms: _506  and  _507
REMARK  210  A    between atoms: _512  and  _514
REMARK  211  A    between atoms: _514  and  _515
REMARK  212  A    between atoms: _514  and  _517
REMARK  213  A    between atoms: _517  and  _518
REMARK  214  A    between atoms: _521  and  _523
REMARK  215  A    between atoms: _523  and  _524
REMARK  216  A    between atoms: _523  and  _526
REMARK  217  A    between atoms: _526  and  _527
REMARK  218  A    between atoms: _530  and  _532
REMARK  219  A    between atoms: _532  and  _533
REMARK  220  A    between atoms: _535  and  _537
REMARK  221  A    between atoms: _537  and  _538
REMARK  222  A    between atoms: _537  and  _540
REMARK  223  A    between atoms: _540  and  _541
REMARK  224  A    between atoms: _541  and  _542
REMARK  225  A    between atoms: _542  and  _543
REMARK  226  A    between atoms: _552  and  _554
REMARK  227  A    between atoms: _554  and  _555
REMARK  228  A    between atoms: _554  and  _557
REMARK  229  A    between atoms: _557  and  _558
REMARK                            x       y       z     vdW  Elec       q    Type
REMARK                         _______ _______ _______ _____ _____    ______ ____
ROOT
ATOM      1  O   HOH     1      25.478  30.628  17.661  0.00  0.00    +0.000 OA
ENDROOT
TORSDOF 0
REMARK  Name = ../refined-set-2016/2qci/2qci_pocket.pdb
REMARK  229 active torsions:
REMARK  status: ('A' for Active; 'I' for Inactive)
REMARK    1  A    between atoms: _1  and  _3
REMARK    2  A    between atoms: _3  and  _4
REMARK    3  A    between atoms: _3  and  _6
REMARK    4  A    between atoms: _6  and  _7
REMARK    5  A    between atoms: _7  and  _8
REMARK    6  A    between atoms: _8  and  _9
REMARK    7  A    between atoms: _18  and  _20
REMARK    8  A    between atoms: _20  and  _21
REMARK    9  A    between atoms: _20  and  _23
REMARK   10  A    between atoms: _23  and  _24
REMARK   11  A    between atoms: _27  and  _29
REMARK   12  A    between atoms: _29  and  _30
REMARK   13  A    between atoms: _29  and  _32
REMARK   14  A    between atoms: _32  and  _33
REMARK   15  A    between atoms: _36  and  _38
REMARK   16  A    between atoms: _38  and  _39
REMARK   17  A    between atoms: _38  and  _41
REMARK   18  A    between atoms: _41  and  _42
REMARK   19  A    between atoms: _45  and  _47
REMARK   20  A    between atoms: _47  and  _48
REMARK   21  A    between atoms: _47  and  _50
REMARK   22  A    between atoms: _50  and  _51
REMARK   23  A    between atoms: _54  and  _56
REMARK   24  A    between atoms: _56  and  _57
REMARK   25  A    between atoms: _59  and  _61
REMARK   26  A    between atoms: _61  and  _62
REMARK   27  A    between atoms: _65  and  _67
REMARK   28  A    between atoms: _67  and  _68
REMARK   29  A    between atoms: _67  and  _70
REMARK   30  A    between atoms: _70  and  _71
REMARK   31  A    between atoms: _74  and  _76
REMARK   32  A    between atoms: _76  and  _77
REMARK   33  A    between atoms: _76  and  _79
REMARK   34  A    between atoms: _79  and  _80
REMARK   35  A    between atoms: _85  and  _87
REMARK   36  A    between atoms: _87  and  _88
REMARK   37  A    between atoms: _87  and  _90
REMARK   38  A    between atoms: _90  and  _91
REMARK   39  A    between atoms: _94  and  _96
REMARK   40  A    between atoms: _96  and  _97
REMARK   41  A    between atoms: _96  and  _99
REMARK   42  A    between atoms: _102  and  _104
REMARK   43  A    between atoms: _104  and  _105
REMARK   44  A    between atoms: _104  and  _107
REMARK   45  A    between atoms: _107  and  _108
REMARK   46  A    between atoms: _108  and  _109
REMARK   47  A    between atoms: _109  and  _110
REMARK   48  A    between atoms: _110  and  _111
REMARK   49  A    between atoms: _115  and  _117
REMARK   50  A    between atoms: _117  and  _118
REMARK   51  A    between atoms: _117  and  _120
REMARK   52  A    between atoms: _120  and  _121
REMARK   53  A    between atoms: _121  and  _122
REMARK   54  A    between atoms: _124  and  _126
REMARK   55  A    between atoms: _126  and  _127
REMARK   56  A    between atoms: _126  and  _129
REMARK   57  A    between atoms: _129  and  _130
REMARK   58  A    between atoms: _133  and  _135
REMARK   59  A    between atoms: _135  and  _136
REMARK   60  A    between atoms: _138  and  _140
REMARK   61  A    between atoms: _140  and  _141
REMARK   62  A    between atoms: _143  and  _145
REMARK   63  A    between atoms: _145  and  _146
REMARK   64  A    between atoms: _145  and  _148
REMARK   65  A    between atoms: _148  and  _149
REMARK   66  A    between atoms: _152  and  _154
REMARK   67  A    between atoms: _154  and  _155
REMARK   68  A    between atoms: _157  and  _159
REMARK   69  A    between atoms: _159  and  _160
REMARK   70  A    between atoms: _162  and  _164
REMARK   71  A    between atoms: _164  and  _165
REMARK   72  A    between atoms: _164  and  _167
REMARK   73  A    between atoms: _167  and  _168
REMARK   74  A    between atoms: _174  and  _176
REMARK   75  A    between atoms: _176  and  _177
REMARK   76  A    between atoms: _176  and  _179
REMARK   77  A    between atoms: _179  and  _180
REMARK   78  A    between atoms: _183  and  _185
REMARK   79  A    between atoms: _185  and  _186
REMARK   80  A    between atoms: _185  and  _188
REMARK   81  A    between atoms: _191  and  _193
REMARK   82  A    between atoms: _193  and  _194
REMARK   83  A    between atoms: _193  and  _196
REMARK   84  A    between atoms: _196  and  _197
REMARK   85  A    between atoms: _200  and  _202
REMARK   86  A    between atoms: _202  and  _203
REMARK   87  A    between atoms: _202  and  _205
REMARK   88  A    between atoms: _205  and  _206
REMARK   89  A    between atoms: _210  and  _211
REMARK   90  A    between atoms: _216  and  _218
REMARK   91  A    between atoms: _218  and  _219
REMARK   92  A    between atoms: _218  and  _221
REMARK   93  A    between atoms: _224  and  _226
REMARK   94  A    between atoms: _226  and  _227
REMARK   95  A    between atoms: _226  and  _229
REMARK   96  A    between atoms: _229  and  _230
REMARK   97  A    between atoms: _235  and  _237
REMARK   98  A    between atoms: _237  and  _238
REMARK   99  A    between atoms: _237  and  _240
REMARK  100  A    between atoms: _240  and  _241
REMARK  101  A    between atoms: _244  and  _246
REMARK  102  A    between atoms: _246  and  _247
REMARK  103  A    between atoms: _246  and  _249
REMARK  104  A    between atoms: _249  and  _250
REMARK  105  A    between atoms: _253  and  _255
REMARK  106  A    between atoms: _255  and  _256
REMARK  107  A    between atoms: _258  and  _260
REMARK  108  A    between atoms: _260  and  _261
REMARK  109  A    between atoms: _260  and  _263
REMARK  110  A    between atoms: _263  and  _264
REMARK  111  A    between atoms: _264  and  _265
REMARK  112  A    between atoms: _265  and  _266
REMARK  113  A    between atoms: _275  and  _277
REMARK  114  A    between atoms: _277  and  _278
REMARK  115  A    between atoms: _277  and  _280
REMARK  116  A    between atoms: _280  and  _281
REMARK  117  A    between atoms: _286  and  _288
REMARK  118  A    between atoms: _288  and  _289
REMARK  119  A    between atoms: _288  and  _291
REMARK  120  A    between atoms: _291  and  _292
REMARK  121  A    between atoms: _292  and  _293
REMARK  122  A    between atoms: _293  and  _294
REMARK  123  A    between atoms: _303  and  _305
REMARK  124  A    between atoms: _305  and  _306
REMARK  125  A    between atoms: _305  and  _308
REMARK  126  A    between atoms: _308  and  _309
REMARK  127  A    between atoms: _312  and  _314
REMARK  128  A    between atoms: _314  and  _315
REMARK  129  A    between atoms: _314  and  _317
REMARK  130  A    between atoms: _317  and  _318
REMARK  131  A    between atoms: _321  and  _323
REMARK  132  A    between atoms: _323  and  _324
REMARK  133  A    between atoms: _323  and  _326
REMARK  134  A    between atoms: _326  and  _327
REMARK  135  A    between atoms: _330  and  _332
REMARK  136  A    between atoms: _332  and  _333
REMARK  137  A    between atoms: _332  and  _335
REMARK  138  A    between atoms: _335  and  _336
REMARK  139  A    between atoms: _339  and  _341
REMARK  140  A    between atoms: _341  and  _342
REMARK  141  A    between atoms: _344  and  _346
REMARK  142  A    between atoms: _346  and  _347
REMARK  143  A    between atoms: _350  and  _352
REMARK  144  A    between atoms: _352  and  _353
REMARK  145  A    between atoms: _352  and  _355
REMARK  146  A    between atoms: _355  and  _356
REMARK  147  A    between atoms: _359  and  _361
REMARK  148  A    between atoms: _361  and  _362
REMARK  149  A    between atoms: _361  and  _364
REMARK  150  A    between atoms: _364  and  _365
REMARK  151  A    between atoms: _370  and  _372
REMARK  152  A    between atoms: _372  and  _373
REMARK  153  A    between atoms: _372  and  _375
REMARK  154  A    between atoms: _375  and  _376
REMARK  155  A    between atoms: _379  and  _381
REMARK  156  A    between atoms: _381  and  _382
REMARK  157  A    between atoms: _381  and  _384
REMARK  158  A    between atoms: _387  and  _389
REMARK  159  A    between atoms: _389  and  _390
REMARK  160  A    between atoms: _389  and  _392
REMARK  161  A    between atoms: _392  and  _393
REMARK  162  A    between atoms: _393  and  _394
REMARK  163  A    between atoms: _394  and  _395
REMARK  164  A    between atoms: _395  and  _396
REMARK  165  A    between atoms: _400  and  _402
REMARK  166  A    between atoms: _402  and  _403
REMARK  167  A    between atoms: _402  and  _405
REMARK  168  A    between atoms: _405  and  _406
REMARK  169  A    between atoms: _406  and  _407
REMARK  170  A    between atoms: _409  and  _411
REMARK  171  A    between atoms: _411  and  _412
REMARK  172  A    between atoms: _411  and  _414
REMARK  173  A    between atoms: _414  and  _415
REMARK  174  A    between atoms: _418  and  _420
REMARK  175  A    between atoms: _420  and  _421
REMARK  176  A    between atoms: _423  and  _425
REMARK  177  A    between atoms: _425  and  _426
REMARK  178  A    between atoms: _428  and  _430
REMARK  179  A    between atoms: _430  and  _431
REMARK  180  A    between atoms: _430  and  _433
REMARK  181  A    between atoms: _433  and  _434
REMARK  182  A    between atoms: _437  and  _439
REMARK  183  A    between atoms: _439  and  _440
REMARK  184  A    between atoms: _442  and  _444
REMARK  185  A    between atoms: _444  and  _445
REMARK  186  A    between atoms: _447  and  _449
REMARK  187  A    between atoms: _449  and  _450
REMARK  188  A    between atoms: _449  and  _452
REMARK  189  A    between atoms: _452  and  _453
REMARK  190  A    between atoms: _459  and  _461
REMARK  191  A    between atoms: _461  and  _462
REMARK  192  A    between atoms: _461  and  _464
REMARK  193  A    between atoms: _464  and  _465
REMARK  194  A    between atoms: _468  and  _470
REMARK  195  A    between atoms: _470  and  _471
REMARK  196  A    between atoms: _470  and  _473
REMARK  197  A    between atoms: _473  and  _474
REMARK  198  A    between atoms: _477  and  _479
REMARK  199  A    between atoms: _479  and  _480
REMARK  200  A    between atoms: _479  and  _482
REMARK  201  A    between atoms: _482  and  _483
REMARK  202  A    between atoms: _487  and  _488
REMARK  203  A    between atoms: _493  and  _495
REMARK  204  A    between atoms: _495  and  _496
REMARK  205  A    between atoms: _495  and  _498
REMARK  206  A    between atoms: _501  and  _503
REMARK  207  A    between atoms: _503  and  _504
REMARK  208  A    between atoms: _503  and  _506
REMARK  209  A    between atoms: _506  and  _507
REMARK  210  A    between atoms: _512  and  _514
REMARK  211  A    between atoms: _514  and  _515
REMARK  212  A    between atoms: _514  and  _517
REMARK  213  A    between atoms: _517  and  _518
REMARK  214  A    between atoms: _521  and  _523
REMARK  215  A    between atoms: _523  and  _524
REMARK  216  A    between atoms: _523  and  _526
REMARK  217  A    between atoms: _526  and  _527
REMARK  218  A    between atoms: _530  and  _532
REMARK  219  A    between atoms: _532  and  _533
REMARK  220  A    between atoms: _535  and  _537
REMARK  221  A    between atoms: _537  and  _538
REMARK  222  A    between atoms: _537  and  _540
REMARK  223  A    between atoms: _540  and  _541
REMARK  224  A    between atoms: _541  and  _542
REMARK  225  A    between atoms: _542  and  _543
REMARK  226  A    between atoms: _552  and  _554
REMARK  227  A    between atoms: _554  and  _555
REMARK  228  A    between atoms: _554  and  _557
REMARK  229  A    between atoms: _557  and  _558
REMARK                            x       y       z     vdW  Elec       q    Type
REMARK                         _______ _______ _______ _____ _____    ______ ____
ROOT
ATOM      1  O   HOH     1       7.412  24.001  18.161  0.00  0.00    +0.000 OA
ENDROOT
TORSDOF 0
REMARK  Name = ../refined-set-2016/2qci/2qci_pocket.pdb
REMARK  229 active torsions:
REMARK  status: ('A' for Active; 'I' for Inactive)
REMARK    1  A    between atoms: _1  and  _3
REMARK    2  A    between atoms: _3  and  _4
REMARK    3  A    between atoms: _3  and  _6
REMARK    4  A    between atoms: _6  and  _7
REMARK    5  A    between atoms: _7  and  _8
REMARK    6  A    between atoms: _8  and  _9
REMARK    7  A    between atoms: _18  and  _20
REMARK    8  A    between atoms: _20  and  _21
REMARK    9  A    between atoms: _20  and  _23
REMARK   10  A    between atoms: _23  and  _24
REMARK   11  A    between atoms: _27  and  _29
REMARK   12  A    between atoms: _29  and  _30
REMARK   13  A    between atoms: _29  and  _32
REMARK   14  A    between atoms: _32  and  _33
REMARK   15  A    between atoms: _36  and  _38
REMARK   16  A    between atoms: _38  and  _39
REMARK   17  A    between atoms: _38  and  _41
REMARK   18  A    between atoms: _41  and  _42
REMARK   19  A    between atoms: _45  and  _47
REMARK   20  A    between atoms: _47  and  _48
REMARK   21  A    between atoms: _47  and  _50
REMARK   22  A    between atoms: _50  and  _51
REMARK   23  A    between atoms: _54  and  _56
REMARK   24  A    between atoms: _56  and  _57
REMARK   25  A    between atoms: _59  and  _61
REMARK   26  A    between atoms: _61  and  _62
REMARK   27  A    between atoms: _65  and  _67
REMARK   28  A    between atoms: _67  and  _68
REMARK   29  A    between atoms: _67  and  _70
REMARK   30  A    between atoms: _70  and  _71
REMARK   31  A    between atoms: _74  and  _76
REMARK   32  A    between atoms: _76  and  _77
REMARK   33  A    between atoms: _76  and  _79
REMARK   34  A    between atoms: _79  and  _80
REMARK   35  A    between atoms: _85  and  _87
REMARK   36  A    between atoms: _87  and  _88
REMARK   37  A    between atoms: _87  and  _90
REMARK   38  A    between atoms: _90  and  _91
REMARK   39  A    between atoms: _94  and  _96
REMARK   40  A    between atoms: _96  and  _97
REMARK   41  A    between atoms: _96  and  _99
REMARK   42  A    between atoms: _102  and  _104
REMARK   43  A    between atoms: _104  and  _105
REMARK   44  A    between atoms: _104  and  _107
REMARK   45  A    between atoms: _107  and  _108
REMARK   46  A    between atoms: _108  and  _109
REMARK   47  A    between atoms: _109  and  _110
REMARK   48  A    between atoms: _110  and  _111
REMARK   49  A    between atoms: _115  and  _117
REMARK   50  A    between atoms: _117  and  _118
REMARK   51  A    between atoms: _117  and  _120
REMARK   52  A    between atoms: _120  and  _121
REMARK   53  A    between atoms: _121  and  _122
REMARK   54  A    between atoms: _124  and  _126
REMARK   55  A    between atoms: _126  and  _127
REMARK   56  A    between atoms: _126  and  _129
REMARK   57  A    between atoms: _129  and  _130
REMARK   58  A    between atoms: _133  and  _135
REMARK   59  A    between atoms: _135  and  _136
REMARK   60  A    between atoms: _138  and  _140
REMARK   61  A    between atoms: _140  and  _141
REMARK   62  A    between atoms: _143  and  _145
REMARK   63  A    between atoms: _145  and  _146
REMARK   64  A    between atoms: _145  and  _148
REMARK   65  A    between atoms: _148  and  _149
REMARK   66  A    between atoms: _152  and  _154
REMARK   67  A    between atoms: _154  and  _155
REMARK   68  A    between atoms: _157  and  _159
REMARK   69  A    between atoms: _159  and  _160
REMARK   70  A    between atoms: _162  and  _164
REMARK   71  A    between atoms: _164  and  _165
REMARK   72  A    between atoms: _164  and  _167
REMARK   73  A    between atoms: _167  and  _168
REMARK   74  A    between atoms: _174  and  _176
REMARK   75  A    between atoms: _176  and  _177
REMARK   76  A    between atoms: _176  and  _179
REMARK   77  A    between atoms: _179  and  _180
REMARK   78  A    between atoms: _183  and  _185
REMARK   79  A    between atoms: _185  and  _186
REMARK   80  A    between atoms: _185  and  _188
REMARK   81  A    between atoms: _191  and  _193
REMARK   82  A    between atoms: _193  and  _194
REMARK   83  A    between atoms: _193  and  _196
REMARK   84  A    between atoms: _196  and  _197
REMARK   85  A    between atoms: _200  and  _202
REMARK   86  A    between atoms: _202  and  _203
REMARK   87  A    between atoms: _202  and  _205
REMARK   88  A    between atoms: _205  and  _206
REMARK   89  A    between atoms: _210  and  _211
REMARK   90  A    between atoms: _216  and  _218
REMARK   91  A    between atoms: _218  and  _219
REMARK   92  A    between atoms: _218  and  _221
REMARK   93  A    between atoms: _224  and  _226
REMARK   94  A    between atoms: _226  and  _227
REMARK   95  A    between atoms: _226  and  _229
REMARK   96  A    between atoms: _229  and  _230
REMARK   97  A    between atoms: _235  and  _237
REMARK   98  A    between atoms: _237  and  _238
REMARK   99  A    between atoms: _237  and  _240
REMARK  100  A    between atoms: _240  and  _241
REMARK  101  A    between atoms: _244  and  _246
REMARK  102  A    between atoms: _246  and  _247
REMARK  103  A    between atoms: _246  and  _249
REMARK  104  A    between atoms: _249  and  _250
REMARK  105  A    between atoms: _253  and  _255
REMARK  106  A    between atoms: _255  and  _256
REMARK  107  A    between atoms: _258  and  _260
REMARK  108  A    between atoms: _260  and  _261
REMARK  109  A    between atoms: _260  and  _263
REMARK  110  A    between atoms: _263  and  _264
REMARK  111  A    between atoms: _264  and  _265
REMARK  112  A    between atoms: _265  and  _266
REMARK  113  A    between atoms: _275  and  _277
REMARK  114  A    between atoms: _277  and  _278
REMARK  115  A    between atoms: _277  and  _280
REMARK  116  A    between atoms: _280  and  _281
REMARK  117  A    between atoms: _286  and  _288
REMARK  118  A    between atoms: _288  and  _289
REMARK  119  A    between atoms: _288  and  _291
REMARK  120  A    between atoms: _291  and  _292
REMARK  121  A    between atoms: _292  and  _293
REMARK  122  A    between atoms: _293  and  _294
REMARK  123  A    between atoms: _303  and  _305
REMARK  124  A    between atoms: _305  and  _306
REMARK  125  A    between atoms: _305  and  _308
REMARK  126  A    between atoms: _308  and  _309
REMARK  127  A    between atoms: _312  and  _314
REMARK  128  A    between atoms: _314  and  _315
REMARK  129  A    between atoms: _314  and  _317
REMARK  130  A    between atoms: _317  and  _318
REMARK  131  A    between atoms: _321  and  _323
REMARK  132  A    between atoms: _323  and  _324
REMARK  133  A    between atoms: _323  and  _326
REMARK  134  A    between atoms: _326  and  _327
REMARK  135  A    between atoms: _330  and  _332
REMARK  136  A    between atoms: _332  and  _333
REMARK  137  A    between atoms: _332  and  _335
REMARK  138  A    between atoms: _335  and  _336
REMARK  139  A    between atoms: _339  and  _341
REMARK  140  A    between atoms: _341  and  _342
REMARK  141  A    between atoms: _344  and  _346
REMARK  142  A    between atoms: _346  and  _347
REMARK  143  A    between atoms: _350  and  _352
REMARK  144  A    between atoms: _352  and  _353
REMARK  145  A    between atoms: _352  and  _355
REMARK  146  A    between atoms: _355  and  _356
REMARK  147  A    between atoms: _359  and  _361
REMARK  148  A    between atoms: _361  and  _362
REMARK  149  A    between atoms: _361  and  _364
REMARK  150  A    between atoms: _364  and  _365
REMARK  151  A    between atoms: _370  and  _372
REMARK  152  A    between atoms: _372  and  _373
REMARK  153  A    between atoms: _372  and  _375
REMARK  154  A    between atoms: _375  and  _376
REMARK  155  A    between atoms: _379  and  _381
REMARK  156  A    between atoms: _381  and  _382
REMARK  157  A    between atoms: _381  and  _384
REMARK  158  A    between atoms: _387  and  _389
REMARK  159  A    between atoms: _389  and  _390
REMARK  160  A    between atoms: _389  and  _392
REMARK  161  A    between atoms: _392  and  _393
REMARK  162  A    between atoms: _393  and  _394
REMARK  163  A    between atoms: _394  and  _395
REMARK  164  A    between atoms: _395  and  _396
REMARK  165  A    between atoms: _400  and  _402
REMARK  166  A    between atoms: _402  and  _403
REMARK  167  A    between atoms: _402  and  _405
REMARK  168  A    between atoms: _405  and  _406
REMARK  169  A    between atoms: _406  and  _407
REMARK  170  A    between atoms: _409  and  _411
REMARK  171  A    between atoms: _411  and  _412
REMARK  172  A    between atoms: _411  and  _414
REMARK  173  A    between atoms: _414  and  _415
REMARK  174  A    between atoms: _418  and  _420
REMARK  175  A    between atoms: _420  and  _421
REMARK  176  A    between atoms: _423  and  _425
REMARK  177  A    between atoms: _425  and  _426
REMARK  178  A    between atoms: _428  and  _430
REMARK  179  A    between atoms: _430  and  _431
REMARK  180  A    between atoms: _430  and  _433
REMARK  181  A    between atoms: _433  and  _434
REMARK  182  A    between atoms: _437  and  _439
REMARK  183  A    between atoms: _439  and  _440
REMARK  184  A    between atoms: _442  and  _444
REMARK  185  A    between atoms: _444  and  _445
REMARK  186  A    between atoms: _447  and  _449
REMARK  187  A    between atoms: _449  and  _450
REMARK  188  A    between atoms: _449  and  _452
REMARK  189  A    between atoms: _452  and  _453
REMARK  190  A    between atoms: _459  and  _461
REMARK  191  A    between atoms: _461  and  _462
REMARK  192  A    between atoms: _461  and  _464
REMARK  193  A    between atoms: _464  and  _465
REMARK  194  A    between atoms: _468  and  _470
REMARK  195  A    between atoms: _470  and  _471
REMARK  196  A    between atoms: _470  and  _473
REMARK  197  A    between atoms: _473  and  _474
REMARK  198  A    between atoms: _477  and  _479
REMARK  199  A    between atoms: _479  and  _480
REMARK  200  A    between atoms: _479  and  _482
REMARK  201  A    between atoms: _482  and  _483
REMARK  202  A    between atoms: _487  and  _488
REMARK  203  A    between atoms: _493  and  _495
REMARK  204  A    between atoms: _495  and  _496
REMARK  205  A    between atoms: _495  and  _498
REMARK  206  A    between atoms: _501  and  _503
REMARK  207  A    between atoms: _503  and  _504
REMARK  208  A    between atoms: _503  and  _506
REMARK  209  A    between atoms: _506  and  _507
REMARK  210  A    between atoms: _512  and  _514
REMARK  211  A    between atoms: _514  and  _515
REMARK  212  A    between atoms: _514  and  _517
REMARK  213  A    between atoms: _517  and  _518
REMARK  214  A    between atoms: _521  and  _523
REMARK  215  A    between atoms: _523  and  _524
REMARK  216  A    between atoms: _523  and  _526
REMARK  217  A    between atoms: _526  and  _527
REMARK  218  A    between atoms: _530  and  _532
REMARK  219  A    between atoms: _532  and  _533
REMARK  220  A    between atoms: _535  and  _537
REMARK  221  A    between atoms: _537  and  _538
REMARK  222  A    between atoms: _537  and  _540
REMARK  223  A    between atoms: _540  and  _541
REMARK  224  A    between atoms: _541  and  _542
REMARK  225  A    between atoms: _542  and  _543
REMARK  226  A    between atoms: _552  and  _554
REMARK  227  A    between atoms: _554  and  _555
REMARK  228  A    between atoms: _554  and  _557
REMARK  229  A    between atoms: _557  and  _558
REMARK                            x       y       z     vdW  Elec       q    Type
REMARK                         _______ _______ _______ _____ _____    ______ ____
ROOT
ATOM      1  O   HOH     1       9.281  16.134  26.591  0.00  0.00    +0.000 OA
ENDROOT
TORSDOF 0
REMARK  Name = ../refined-set-2016/2qci/2qci_pocket.pdb
REMARK  229 active torsions:
REMARK  status: ('A' for Active; 'I' for Inactive)
REMARK    1  A    between atoms: _1  and  _3
REMARK    2  A    between atoms: _3  and  _4
REMARK    3  A    between atoms: _3  and  _6
REMARK    4  A    between atoms: _6  and  _7
REMARK    5  A    between atoms: _7  and  _8
REMARK    6  A    between atoms: _8  and  _9
REMARK    7  A    between atoms: _18  and  _20
REMARK    8  A    between atoms: _20  and  _21
REMARK    9  A    between atoms: _20  and  _23
REMARK   10  A    between atoms: _23  and  _24
REMARK   11  A    between atoms: _27  and  _29
REMARK   12  A    between atoms: _29  and  _30
REMARK   13  A    between atoms: _29  and  _32
REMARK   14  A    between atoms: _32  and  _33
REMARK   15  A    between atoms: _36  and  _38
REMARK   16  A    between atoms: _38  and  _39
REMARK   17  A    between atoms: _38  and  _41
REMARK   18  A    between atoms: _41  and  _42
REMARK   19  A    between atoms: _45  and  _47
REMARK   20  A    between atoms: _47  and  _48
REMARK   21  A    between atoms: _47  and  _50
REMARK   22  A    between atoms: _50  and  _51
REMARK   23  A    between atoms: _54  and  _56
REMARK   24  A    between atoms: _56  and  _57
REMARK   25  A    between atoms: _59  and  _61
REMARK   26  A    between atoms: _61  and  _62
REMARK   27  A    between atoms: _65  and  _67
REMARK   28  A    between atoms: _67  and  _68
REMARK   29  A    between atoms: _67  and  _70
REMARK   30  A    between atoms: _70  and  _71
REMARK   31  A    between atoms: _74  and  _76
REMARK   32  A    between atoms: _76  and  _77
REMARK   33  A    between atoms: _76  and  _79
REMARK   34  A    between atoms: _79  and  _80
REMARK   35  A    between atoms: _85  and  _87
REMARK   36  A    between atoms: _87  and  _88
REMARK   37  A    between atoms: _87  and  _90
REMARK   38  A    between atoms: _90  and  _91
REMARK   39  A    between atoms: _94  and  _96
REMARK   40  A    between atoms: _96  and  _97
REMARK   41  A    between atoms: _96  and  _99
REMARK   42  A    between atoms: _102  and  _104
REMARK   43  A    between atoms: _104  and  _105
REMARK   44  A    between atoms: _104  and  _107
REMARK   45  A    between atoms: _107  and  _108
REMARK   46  A    between atoms: _108  and  _109
REMARK   47  A    between atoms: _109  and  _110
REMARK   48  A    between atoms: _110  and  _111
REMARK   49  A    between atoms: _115  and  _117
REMARK   50  A    between atoms: _117  and  _118
REMARK   51  A    between atoms: _117  and  _120
REMARK   52  A    between atoms: _120  and  _121
REMARK   53  A    between atoms: _121  and  _122
REMARK   54  A    between atoms: _124  and  _126
REMARK   55  A    between atoms: _126  and  _127
REMARK   56  A    between atoms: _126  and  _129
REMARK   57  A    between atoms: _129  and  _130
REMARK   58  A    between atoms: _133  and  _135
REMARK   59  A    between atoms: _135  and  _136
REMARK   60  A    between atoms: _138  and  _140
REMARK   61  A    between atoms: _140  and  _141
REMARK   62  A    between atoms: _143  and  _145
REMARK   63  A    between atoms: _145  and  _146
REMARK   64  A    between atoms: _145  and  _148
REMARK   65  A    between atoms: _148  and  _149
REMARK   66  A    between atoms: _152  and  _154
REMARK   67  A    between atoms: _154  and  _155
REMARK   68  A    between atoms: _157  and  _159
REMARK   69  A    between atoms: _159  and  _160
REMARK   70  A    between atoms: _162  and  _164
REMARK   71  A    between atoms: _164  and  _165
REMARK   72  A    between atoms: _164  and  _167
REMARK   73  A    between atoms: _167  and  _168
REMARK   74  A    between atoms: _174  and  _176
REMARK   75  A    between atoms: _176  and  _177
REMARK   76  A    between atoms: _176  and  _179
REMARK   77  A    between atoms: _179  and  _180
REMARK   78  A    between atoms: _183  and  _185
REMARK   79  A    between atoms: _185  and  _186
REMARK   80  A    between atoms: _185  and  _188
REMARK   81  A    between atoms: _191  and  _193
REMARK   82  A    between atoms: _193  and  _194
REMARK   83  A    between atoms: _193  and  _196
REMARK   84  A    between atoms: _196  and  _197
REMARK   85  A    between atoms: _200  and  _202
REMARK   86  A    between atoms: _202  and  _203
REMARK   87  A    between atoms: _202  and  _205
REMARK   88  A    between atoms: _205  and  _206
REMARK   89  A    between atoms: _210  and  _211
REMARK   90  A    between atoms: _216  and  _218
REMARK   91  A    between atoms: _218  and  _219
REMARK   92  A    between atoms: _218  and  _221
REMARK   93  A    between atoms: _224  and  _226
REMARK   94  A    between atoms: _226  and  _227
REMARK   95  A    between atoms: _226  and  _229
REMARK   96  A    between atoms: _229  and  _230
REMARK   97  A    between atoms: _235  and  _237
REMARK   98  A    between atoms: _237  and  _238
REMARK   99  A    between atoms: _237  and  _240
REMARK  100  A    between atoms: _240  and  _241
REMARK  101  A    between atoms: _244  and  _246
REMARK  102  A    between atoms: _246  and  _247
REMARK  103  A    between atoms: _246  and  _249
REMARK  104  A    between atoms: _249  and  _250
REMARK  105  A    between atoms: _253  and  _255
REMARK  106  A    between atoms: _255  and  _256
REMARK  107  A    between atoms: _258  and  _260
REMARK  108  A    between atoms: _260  and  _261
REMARK  109  A    between atoms: _260  and  _263
REMARK  110  A    between atoms: _263  and  _264
REMARK  111  A    between atoms: _264  and  _265
REMARK  112  A    between atoms: _265  and  _266
REMARK  113  A    between atoms: _275  and  _277
REMARK  114  A    between atoms: _277  and  _278
REMARK  115  A    between atoms: _277  and  _280
REMARK  116  A    between atoms: _280  and  _281
REMARK  117  A    between atoms: _286  and  _288
REMARK  118  A    between atoms: _288  and  _289
REMARK  119  A    between atoms: _288  and  _291
REMARK  120  A    between atoms: _291  and  _292
REMARK  121  A    between atoms: _292  and  _293
REMARK  122  A    between atoms: _293  and  _294
REMARK  123  A    between atoms: _303  and  _305
REMARK  124  A    between atoms: _305  and  _306
REMARK  125  A    between atoms: _305  and  _308
REMARK  126  A    between atoms: _308  and  _309
REMARK  127  A    between atoms: _312  and  _314
REMARK  128  A    between atoms: _314  and  _315
REMARK  129  A    between atoms: _314  and  _317
REMARK  130  A    between atoms: _317  and  _318
REMARK  131  A    between atoms: _321  and  _323
REMARK  132  A    between atoms: _323  and  _324
REMARK  133  A    between atoms: _323  and  _326
REMARK  134  A    between atoms: _326  and  _327
REMARK  135  A    between atoms: _330  and  _332
REMARK  136  A    between atoms: _332  and  _333
REMARK  137  A    between atoms: _332  and  _335
REMARK  138  A    between atoms: _335  and  _336
REMARK  139  A    between atoms: _339  and  _341
REMARK  140  A    between atoms: _341  and  _342
REMARK  141  A    between atoms: _344  and  _346
REMARK  142  A    between atoms: _346  and  _347
REMARK  143  A    between atoms: _350  and  _352
REMARK  144  A    between atoms: _352  and  _353
REMARK  145  A    between atoms: _352  and  _355
REMARK  146  A    between atoms: _355  and  _356
REMARK  147  A    between atoms: _359  and  _361
REMARK  148  A    between atoms: _361  and  _362
REMARK  149  A    between atoms: _361  and  _364
REMARK  150  A    between atoms: _364  and  _365
REMARK  151  A    between atoms: _370  and  _372
REMARK  152  A    between atoms: _372  and  _373
REMARK  153  A    between atoms: _372  and  _375
REMARK  154  A    between atoms: _375  and  _376
REMARK  155  A    between atoms: _379  and  _381
REMARK  156  A    between atoms: _381  and  _382
REMARK  157  A    between atoms: _381  and  _384
REMARK  158  A    between atoms: _387  and  _389
REMARK  159  A    between atoms: _389  and  _390
REMARK  160  A    between atoms: _389  and  _392
REMARK  161  A    between atoms: _392  and  _393
REMARK  162  A    between atoms: _393  and  _394
REMARK  163  A    between atoms: _394  and  _395
REMARK  164  A    between atoms: _395  and  _396
REMARK  165  A    between atoms: _400  and  _402
REMARK  166  A    between atoms: _402  and  _403
REMARK  167  A    between atoms: _402  and  _405
REMARK  168  A    between atoms: _405  and  _406
REMARK  169  A    between atoms: _406  and  _407
REMARK  170  A    between atoms: _409  and  _411
REMARK  171  A    between atoms: _411  and  _412
REMARK  172  A    between atoms: _411  and  _414
REMARK  173  A    between atoms: _414  and  _415
REMARK  174  A    between atoms: _418  and  _420
REMARK  175  A    between atoms: _420  and  _421
REMARK  176  A    between atoms: _423  and  _425
REMARK  177  A    between atoms: _425  and  _426
REMARK  178  A    between atoms: _428  and  _430
REMARK  179  A    between atoms: _430  and  _431
REMARK  180  A    between atoms: _430  and  _433
REMARK  181  A    between atoms: _433  and  _434
REMARK  182  A    between atoms: _437  and  _439
REMARK  183  A    between atoms: _439  and  _440
REMARK  184  A    between atoms: _442  and  _444
REMARK  185  A    between atoms: _444  and  _445
REMARK  186  A    between atoms: _447  and  _449
REMARK  187  A    between atoms: _449  and  _450
REMARK  188  A    between atoms: _449  and  _452
REMARK  189  A    between atoms: _452  and  _453
REMARK  190  A    between atoms: _459  and  _461
REMARK  191  A    between atoms: _461  and  _462
REMARK  192  A    between atoms: _461  and  _464
REMARK  193  A    between atoms: _464  and  _465
REMARK  194  A    between atoms: _468  and  _470
REMARK  195  A    between atoms: _470  and  _471
REMARK  196  A    between atoms: _470  and  _473
REMARK  197  A    between atoms: _473  and  _474
REMARK  198  A    between atoms: _477  and  _479
REMARK  199  A    between atoms: _479  and  _480
REMARK  200  A    between atoms: _479  and  _482
REMARK  201  A    between atoms: _482  and  _483
REMARK  202  A    between atoms: _487  and  _488
REMARK  203  A    between atoms: _493  and  _495
REMARK  204  A    between atoms: _495  and  _496
REMARK  205  A    between atoms: _495  and  _498
REMARK  206  A    between atoms: _501  and  _503
REMARK  207  A    between atoms: _503  and  _504
REMARK  208  A    between atoms: _503  and  _506
REMARK  209  A    between atoms: _506  and  _507
REMARK  210  A    between atoms: _512  and  _514
REMARK  211  A    between atoms: _514  and  _515
REMARK  212  A    between atoms: _514  and  _517
REMARK  213  A    between atoms: _517  and  _518
REMARK  214  A    between atoms: _521  and  _523
REMARK  215  A    between atoms: _523  and  _524
REMARK  216  A    between atoms: _523  and  _526
REMARK  217  A    between atoms: _526  and  _527
REMARK  218  A    between atoms: _530  and  _532
REMARK  219  A    between atoms: _532  and  _533
REMARK  220  A    between atoms: _535  and  _537
REMARK  221  A    between atoms: _537  and  _538
REMARK  222  A    between atoms: _537  and  _540
REMARK  223  A    between atoms: _540  and  _541
REMARK  224  A    between atoms: _541  and  _542
REMARK  225  A    between atoms: _542  and  _543
REMARK  226  A    between atoms: _552  and  _554
REMARK  227  A    between atoms: _554  and  _555
REMARK  228  A    between atoms: _554  and  _557
REMARK  229  A    between atoms: _557  and  _558
REMARK                            x       y       z     vdW  Elec       q    Type
REMARK                         _______ _______ _______ _____ _____    ______ ____
ROOT
ATOM      1  O   HOH     1       8.865  22.180  16.606  0.00  0.00    +0.000 OA
ENDROOT
TORSDOF 0
REMARK  Name = ../refined-set-2016/2qci/2qci_pocket.pdb
REMARK  229 active torsions:
REMARK  status: ('A' for Active; 'I' for Inactive)
REMARK    1  A    between atoms: _1  and  _3
REMARK    2  A    between atoms: _3  and  _4
REMARK    3  A    between atoms: _3  and  _6
REMARK    4  A    between atoms: _6  and  _7
REMARK    5  A    between atoms: _7  and  _8
REMARK    6  A    between atoms: _8  and  _9
REMARK    7  A    between atoms: _18  and  _20
REMARK    8  A    between atoms: _20  and  _21
REMARK    9  A    between atoms: _20  and  _23
REMARK   10  A    between atoms: _23  and  _24
REMARK   11  A    between atoms: _27  and  _29
REMARK   12  A    between atoms: _29  and  _30
REMARK   13  A    between atoms: _29  and  _32
REMARK   14  A    between atoms: _32  and  _33
REMARK   15  A    between atoms: _36  and  _38
REMARK   16  A    between atoms: _38  and  _39
REMARK   17  A    between atoms: _38  and  _41
REMARK   18  A    between atoms: _41  and  _42
REMARK   19  A    between atoms: _45  and  _47
REMARK   20  A    between atoms: _47  and  _48
REMARK   21  A    between atoms: _47  and  _50
REMARK   22  A    between atoms: _50  and  _51
REMARK   23  A    between atoms: _54  and  _56
REMARK   24  A    between atoms: _56  and  _57
REMARK   25  A    between atoms: _59  and  _61
REMARK   26  A    between atoms: _61  and  _62
REMARK   27  A    between atoms: _65  and  _67
REMARK   28  A    between atoms: _67  and  _68
REMARK   29  A    between atoms: _67  and  _70
REMARK   30  A    between atoms: _70  and  _71
REMARK   31  A    between atoms: _74  and  _76
REMARK   32  A    between atoms: _76  and  _77
REMARK   33  A    between atoms: _76  and  _79
REMARK   34  A    between atoms: _79  and  _80
REMARK   35  A    between atoms: _85  and  _87
REMARK   36  A    between atoms: _87  and  _88
REMARK   37  A    between atoms: _87  and  _90
REMARK   38  A    between atoms: _90  and  _91
REMARK   39  A    between atoms: _94  and  _96
REMARK   40  A    between atoms: _96  and  _97
REMARK   41  A    between atoms: _96  and  _99
REMARK   42  A    between atoms: _102  and  _104
REMARK   43  A    between atoms: _104  and  _105
REMARK   44  A    between atoms: _104  and  _107
REMARK   45  A    between atoms: _107  and  _108
REMARK   46  A    between atoms: _108  and  _109
REMARK   47  A    between atoms: _109  and  _110
REMARK   48  A    between atoms: _110  and  _111
REMARK   49  A    between atoms: _115  and  _117
REMARK   50  A    between atoms: _117  and  _118
REMARK   51  A    between atoms: _117  and  _120
REMARK   52  A    between atoms: _120  and  _121
REMARK   53  A    between atoms: _121  and  _122
REMARK   54  A    between atoms: _124  and  _126
REMARK   55  A    between atoms: _126  and  _127
REMARK   56  A    between atoms: _126  and  _129
REMARK   57  A    between atoms: _129  and  _130
REMARK   58  A    between atoms: _133  and  _135
REMARK   59  A    between atoms: _135  and  _136
REMARK   60  A    between atoms: _138  and  _140
REMARK   61  A    between atoms: _140  and  _141
REMARK   62  A    between atoms: _143  and  _145
REMARK   63  A    between atoms: _145  and  _146
REMARK   64  A    between atoms: _145  and  _148
REMARK   65  A    between atoms: _148  and  _149
REMARK   66  A    between atoms: _152  and  _154
REMARK   67  A    between atoms: _154  and  _155
REMARK   68  A    between atoms: _157  and  _159
REMARK   69  A    between atoms: _159  and  _160
REMARK   70  A    between atoms: _162  and  _164
REMARK   71  A    between atoms: _164  and  _165
REMARK   72  A    between atoms: _164  and  _167
REMARK   73  A    between atoms: _167  and  _168
REMARK   74  A    between atoms: _174  and  _176
REMARK   75  A    between atoms: _176  and  _177
REMARK   76  A    between atoms: _176  and  _179
REMARK   77  A    between atoms: _179  and  _180
REMARK   78  A    between atoms: _183  and  _185
REMARK   79  A    between atoms: _185  and  _186
REMARK   80  A    between atoms: _185  and  _188
REMARK   81  A    between atoms: _191  and  _193
REMARK   82  A    between atoms: _193  and  _194
REMARK   83  A    between atoms: _193  and  _196
REMARK   84  A    between atoms: _196  and  _197
REMARK   85  A    between atoms: _200  and  _202
REMARK   86  A    between atoms: _202  and  _203
REMARK   87  A    between atoms: _202  and  _205
REMARK   88  A    between atoms: _205  and  _206
REMARK   89  A    between atoms: _210  and  _211
REMARK   90  A    between atoms: _216  and  _218
REMARK   91  A    between atoms: _218  and  _219
REMARK   92  A    between atoms: _218  and  _221
REMARK   93  A    between atoms: _224  and  _226
REMARK   94  A    between atoms: _226  and  _227
REMARK   95  A    between atoms: _226  and  _229
REMARK   96  A    between atoms: _229  and  _230
REMARK   97  A    between atoms: _235  and  _237
REMARK   98  A    between atoms: _237  and  _238
REMARK   99  A    between atoms: _237  and  _240
REMARK  100  A    between atoms: _240  and  _241
REMARK  101  A    between atoms: _244  and  _246
REMARK  102  A    between atoms: _246  and  _247
REMARK  103  A    between atoms: _246  and  _249
REMARK  104  A    between atoms: _249  and  _250
REMARK  105  A    between atoms: _253  and  _255
REMARK  106  A    between atoms: _255  and  _256
REMARK  107  A    between atoms: _258  and  _260
REMARK  108  A    between atoms: _260  and  _261
REMARK  109  A    between atoms: _260  and  _263
REMARK  110  A    between atoms: _263  and  _264
REMARK  111  A    between atoms: _264  and  _265
REMARK  112  A    between atoms: _265  and  _266
REMARK  113  A    between atoms: _275  and  _277
REMARK  114  A    between atoms: _277  and  _278
REMARK  115  A    between atoms: _277  and  _280
REMARK  116  A    between atoms: _280  and  _281
REMARK  117  A    between atoms: _286  and  _288
REMARK  118  A    between atoms: _288  and  _289
REMARK  119  A    between atoms: _288  and  _291
REMARK  120  A    between atoms: _291  and  _292
REMARK  121  A    between atoms: _292  and  _293
REMARK  122  A    between atoms: _293  and  _294
REMARK  123  A    between atoms: _303  and  _305
REMARK  124  A    between atoms: _305  and  _306
REMARK  125  A    between atoms: _305  and  _308
REMARK  126  A    between atoms: _308  and  _309
REMARK  127  A    between atoms: _312  and  _314
REMARK  128  A    between atoms: _314  and  _315
REMARK  129  A    between atoms: _314  and  _317
REMARK  130  A    between atoms: _317  and  _318
REMARK  131  A    between atoms: _321  and  _323
REMARK  132  A    between atoms: _323  and  _324
REMARK  133  A    between atoms: _323  and  _326
REMARK  134  A    between atoms: _326  and  _327
REMARK  135  A    between atoms: _330  and  _332
REMARK  136  A    between atoms: _332  and  _333
REMARK  137  A    between atoms: _332  and  _335
REMARK  138  A    between atoms: _335  and  _336
REMARK  139  A    between atoms: _339  and  _341
REMARK  140  A    between atoms: _341  and  _342
REMARK  141  A    between atoms: _344  and  _346
REMARK  142  A    between atoms: _346  and  _347
REMARK  143  A    between atoms: _350  and  _352
REMARK  144  A    between atoms: _352  and  _353
REMARK  145  A    between atoms: _352  and  _355
REMARK  146  A    between atoms: _355  and  _356
REMARK  147  A    between atoms: _359  and  _361
REMARK  148  A    between atoms: _361  and  _362
REMARK  149  A    between atoms: _361  and  _364
REMARK  150  A    between atoms: _364  and  _365
REMARK  151  A    between atoms: _370  and  _372
REMARK  152  A    between atoms: _372  and  _373
REMARK  153  A    between atoms: _372  and  _375
REMARK  154  A    between atoms: _375  and  _376
REMARK  155  A    between atoms: _379  and  _381
REMARK  156  A    between atoms: _381  and  _382
REMARK  157  A    between atoms: _381  and  _384
REMARK  158  A    between atoms: _387  and  _389
REMARK  159  A    between atoms: _389  and  _390
REMARK  160  A    between atoms: _389  and  _392
REMARK  161  A    between atoms: _392  and  _393
REMARK  162  A    between atoms: _393  and  _394
REMARK  163  A    between atoms: _394  and  _395
REMARK  164  A    between atoms: _395  and  _396
REMARK  165  A    between atoms: _400  and  _402
REMARK  166  A    between atoms: _402  and  _403
REMARK  167  A    between atoms: _402  and  _405
REMARK  168  A    between atoms: _405  and  _406
REMARK  169  A    between atoms: _406  and  _407
REMARK  170  A    between atoms: _409  and  _411
REMARK  171  A    between atoms: _411  and  _412
REMARK  172  A    between atoms: _411  and  _414
REMARK  173  A    between atoms: _414  and  _415
REMARK  174  A    between atoms: _418  and  _420
REMARK  175  A    between atoms: _420  and  _421
REMARK  176  A    between atoms: _423  and  _425
REMARK  177  A    between atoms: _425  and  _426
REMARK  178  A    between atoms: _428  and  _430
REMARK  179  A    between atoms: _430  and  _431
REMARK  180  A    between atoms: _430  and  _433
REMARK  181  A    between atoms: _433  and  _434
REMARK  182  A    between atoms: _437  and  _439
REMARK  183  A    between atoms: _439  and  _440
REMARK  184  A    between atoms: _442  and  _444
REMARK  185  A    between atoms: _444  and  _445
REMARK  186  A    between atoms: _447  and  _449
REMARK  187  A    between atoms: _449  and  _450
REMARK  188  A    between atoms: _449  and  _452
REMARK  189  A    between atoms: _452  and  _453
REMARK  190  A    between atoms: _459  and  _461
REMARK  191  A    between atoms: _461  and  _462
REMARK  192  A    between atoms: _461  and  _464
REMARK  193  A    between atoms: _464  and  _465
REMARK  194  A    between atoms: _468  and  _470
REMARK  195  A    between atoms: _470  and  _471
REMARK  196  A    between atoms: _470  and  _473
REMARK  197  A    between atoms: _473  and  _474
REMARK  198  A    between atoms: _477  and  _479
REMARK  199  A    between atoms: _479  and  _480
REMARK  200  A    between atoms: _479  and  _482
REMARK  201  A    between atoms: _482  and  _483
REMARK  202  A    between atoms: _487  and  _488
REMARK  203  A    between atoms: _493  and  _495
REMARK  204  A    between atoms: _495  and  _496
REMARK  205  A    between atoms: _495  and  _498
REMARK  206  A    between atoms: _501  and  _503
REMARK  207  A    between atoms: _503  and  _504
REMARK  208  A    between atoms: _503  and  _506
REMARK  209  A    between atoms: _506  and  _507
REMARK  210  A    between atoms: _512  and  _514
REMARK  211  A    between atoms: _514  and  _515
REMARK  212  A    between atoms: _514  and  _517
REMARK  213  A    between atoms: _517  and  _518
REMARK  214  A    between atoms: _521  and  _523
REMARK  215  A    between atoms: _523  and  _524
REMARK  216  A    between atoms: _523  and  _526
REMARK  217  A    between atoms: _526  and  _527
REMARK  218  A    between atoms: _530  and  _532
REMARK  219  A    between atoms: _532  and  _533
REMARK  220  A    between atoms: _535  and  _537
REMARK  221  A    between atoms: _537  and  _538
REMARK  222  A    between atoms: _537  and  _540
REMARK  223  A    between atoms: _540  and  _541
REMARK  224  A    between atoms: _541  and  _542
REMARK  225  A    between atoms: _542  and  _543
REMARK  226  A    between atoms: _552  and  _554
REMARK  227  A    between atoms: _554  and  _555
REMARK  228  A    between atoms: _554  and  _557
REMARK  229  A    between atoms: _557  and  _558
REMARK                            x       y       z     vdW  Elec       q    Type
REMARK                         _______ _______ _______ _____ _____    ______ ____
ROOT
ATOM      1  O   HOH     1      11.047  15.018  16.452  0.00  0.00    +0.000 OA
ENDROOT
TORSDOF 0
REMARK  Name = ../refined-set-2016/2qci/2qci_pocket.pdb
REMARK  229 active torsions:
REMARK  status: ('A' for Active; 'I' for Inactive)
REMARK    1  A    between atoms: _1  and  _3
REMARK    2  A    between atoms: _3  and  _4
REMARK    3  A    between atoms: _3  and  _6
REMARK    4  A    between atoms: _6  and  _7
REMARK    5  A    between atoms: _7  and  _8
REMARK    6  A    between atoms: _8  and  _9
REMARK    7  A    between atoms: _18  and  _20
REMARK    8  A    between atoms: _20  and  _21
REMARK    9  A    between atoms: _20  and  _23
REMARK   10  A    between atoms: _23  and  _24
REMARK   11  A    between atoms: _27  and  _29
REMARK   12  A    between atoms: _29  and  _30
REMARK   13  A    between atoms: _29  and  _32
REMARK   14  A    between atoms: _32  and  _33
REMARK   15  A    between atoms: _36  and  _38
REMARK   16  A    between atoms: _38  and  _39
REMARK   17  A    between atoms: _38  and  _41
REMARK   18  A    between atoms: _41  and  _42
REMARK   19  A    between atoms: _45  and  _47
REMARK   20  A    between atoms: _47  and  _48
REMARK   21  A    between atoms: _47  and  _50
REMARK   22  A    between atoms: _50  and  _51
REMARK   23  A    between atoms: _54  and  _56
REMARK   24  A    between atoms: _56  and  _57
REMARK   25  A    between atoms: _59  and  _61
REMARK   26  A    between atoms: _61  and  _62
REMARK   27  A    between atoms: _65  and  _67
REMARK   28  A    between atoms: _67  and  _68
REMARK   29  A    between atoms: _67  and  _70
REMARK   30  A    between atoms: _70  and  _71
REMARK   31  A    between atoms: _74  and  _76
REMARK   32  A    between atoms: _76  and  _77
REMARK   33  A    between atoms: _76  and  _79
REMARK   34  A    between atoms: _79  and  _80
REMARK   35  A    between atoms: _85  and  _87
REMARK   36  A    between atoms: _87  and  _88
REMARK   37  A    between atoms: _87  and  _90
REMARK   38  A    between atoms: _90  and  _91
REMARK   39  A    between atoms: _94  and  _96
REMARK   40  A    between atoms: _96  and  _97
REMARK   41  A    between atoms: _96  and  _99
REMARK   42  A    between atoms: _102  and  _104
REMARK   43  A    between atoms: _104  and  _105
REMARK   44  A    between atoms: _104  and  _107
REMARK   45  A    between atoms: _107  and  _108
REMARK   46  A    between atoms: _108  and  _109
REMARK   47  A    between atoms: _109  and  _110
REMARK   48  A    between atoms: _110  and  _111
REMARK   49  A    between atoms: _115  and  _117
REMARK   50  A    between atoms: _117  and  _118
REMARK   51  A    between atoms: _117  and  _120
REMARK   52  A    between atoms: _120  and  _121
REMARK   53  A    between atoms: _121  and  _122
REMARK   54  A    between atoms: _124  and  _126
REMARK   55  A    between atoms: _126  and  _127
REMARK   56  A    between atoms: _126  and  _129
REMARK   57  A    between atoms: _129  and  _130
REMARK   58  A    between atoms: _133  and  _135
REMARK   59  A    between atoms: _135  and  _136
REMARK   60  A    between atoms: _138  and  _140
REMARK   61  A    between atoms: _140  and  _141
REMARK   62  A    between atoms: _143  and  _145
REMARK   63  A    between atoms: _145  and  _146
REMARK   64  A    between atoms: _145  and  _148
REMARK   65  A    between atoms: _148  and  _149
REMARK   66  A    between atoms: _152  and  _154
REMARK   67  A    between atoms: _154  and  _155
REMARK   68  A    between atoms: _157  and  _159
REMARK   69  A    between atoms: _159  and  _160
REMARK   70  A    between atoms: _162  and  _164
REMARK   71  A    between atoms: _164  and  _165
REMARK   72  A    between atoms: _164  and  _167
REMARK   73  A    between atoms: _167  and  _168
REMARK   74  A    between atoms: _174  and  _176
REMARK   75  A    between atoms: _176  and  _177
REMARK   76  A    between atoms: _176  and  _179
REMARK   77  A    between atoms: _179  and  _180
REMARK   78  A    between atoms: _183  and  _185
REMARK   79  A    between atoms: _185  and  _186
REMARK   80  A    between atoms: _185  and  _188
REMARK   81  A    between atoms: _191  and  _193
REMARK   82  A    between atoms: _193  and  _194
REMARK   83  A    between atoms: _193  and  _196
REMARK   84  A    between atoms: _196  and  _197
REMARK   85  A    between atoms: _200  and  _202
REMARK   86  A    between atoms: _202  and  _203
REMARK   87  A    between atoms: _202  and  _205
REMARK   88  A    between atoms: _205  and  _206
REMARK   89  A    between atoms: _210  and  _211
REMARK   90  A    between atoms: _216  and  _218
REMARK   91  A    between atoms: _218  and  _219
REMARK   92  A    between atoms: _218  and  _221
REMARK   93  A    between atoms: _224  and  _226
REMARK   94  A    between atoms: _226  and  _227
REMARK   95  A    between atoms: _226  and  _229
REMARK   96  A    between atoms: _229  and  _230
REMARK   97  A    between atoms: _235  and  _237
REMARK   98  A    between atoms: _237  and  _238
REMARK   99  A    between atoms: _237  and  _240
REMARK  100  A    between atoms: _240  and  _241
REMARK  101  A    between atoms: _244  and  _246
REMARK  102  A    between atoms: _246  and  _247
REMARK  103  A    between atoms: _246  and  _249
REMARK  104  A    between atoms: _249  and  _250
REMARK  105  A    between atoms: _253  and  _255
REMARK  106  A    between atoms: _255  and  _256
REMARK  107  A    between atoms: _258  and  _260
REMARK  108  A    between atoms: _260  and  _261
REMARK  109  A    between atoms: _260  and  _263
REMARK  110  A    between atoms: _263  and  _264
REMARK  111  A    between atoms: _264  and  _265
REMARK  112  A    between atoms: _265  and  _266
REMARK  113  A    between atoms: _275  and  _277
REMARK  114  A    between atoms: _277  and  _278
REMARK  115  A    between atoms: _277  and  _280
REMARK  116  A    between atoms: _280  and  _281
REMARK  117  A    between atoms: _286  and  _288
REMARK  118  A    between atoms: _288  and  _289
REMARK  119  A    between atoms: _288  and  _291
REMARK  120  A    between atoms: _291  and  _292
REMARK  121  A    between atoms: _292  and  _293
REMARK  122  A    between atoms: _293  and  _294
REMARK  123  A    between atoms: _303  and  _305
REMARK  124  A    between atoms: _305  and  _306
REMARK  125  A    between atoms: _305  and  _308
REMARK  126  A    between atoms: _308  and  _309
REMARK  127  A    between atoms: _312  and  _314
REMARK  128  A    between atoms: _314  and  _315
REMARK  129  A    between atoms: _314  and  _317
REMARK  130  A    between atoms: _317  and  _318
REMARK  131  A    between atoms: _321  and  _323
REMARK  132  A    between atoms: _323  and  _324
REMARK  133  A    between atoms: _323  and  _326
REMARK  134  A    between atoms: _326  and  _327
REMARK  135  A    between atoms: _330  and  _332
REMARK  136  A    between atoms: _332  and  _333
REMARK  137  A    between atoms: _332  and  _335
REMARK  138  A    between atoms: _335  and  _336
REMARK  139  A    between atoms: _339  and  _341
REMARK  140  A    between atoms: _341  and  _342
REMARK  141  A    between atoms: _344  and  _346
REMARK  142  A    between atoms: _346  and  _347
REMARK  143  A    between atoms: _350  and  _352
REMARK  144  A    between atoms: _352  and  _353
REMARK  145  A    between atoms: _352  and  _355
REMARK  146  A    between atoms: _355  and  _356
REMARK  147  A    between atoms: _359  and  _361
REMARK  148  A    between atoms: _361  and  _362
REMARK  149  A    between atoms: _361  and  _364
REMARK  150  A    between atoms: _364  and  _365
REMARK  151  A    between atoms: _370  and  _372
REMARK  152  A    between atoms: _372  and  _373
REMARK  153  A    between atoms: _372  and  _375
REMARK  154  A    between atoms: _375  and  _376
REMARK  155  A    between atoms: _379  and  _381
REMARK  156  A    between atoms: _381  and  _382
REMARK  157  A    between atoms: _381  and  _384
REMARK  158  A    between atoms: _387  and  _389
REMARK  159  A    between atoms: _389  and  _390
REMARK  160  A    between atoms: _389  and  _392
REMARK  161  A    between atoms: _392  and  _393
REMARK  162  A    between atoms: _393  and  _394
REMARK  163  A    between atoms: _394  and  _395
REMARK  164  A    between atoms: _395  and  _396
REMARK  165  A    between atoms: _400  and  _402
REMARK  166  A    between atoms: _402  and  _403
REMARK  167  A    between atoms: _402  and  _405
REMARK  168  A    between atoms: _405  and  _406
REMARK  169  A    between atoms: _406  and  _407
REMARK  170  A    between atoms: _409  and  _411
REMARK  171  A    between atoms: _411  and  _412
REMARK  172  A    between atoms: _411  and  _414
REMARK  173  A    between atoms: _414  and  _415
REMARK  174  A    between atoms: _418  and  _420
REMARK  175  A    between atoms: _420  and  _421
REMARK  176  A    between atoms: _423  and  _425
REMARK  177  A    between atoms: _425  and  _426
REMARK  178  A    between atoms: _428  and  _430
REMARK  179  A    between atoms: _430  and  _431
REMARK  180  A    between atoms: _430  and  _433
REMARK  181  A    between atoms: _433  and  _434
REMARK  182  A    between atoms: _437  and  _439
REMARK  183  A    between atoms: _439  and  _440
REMARK  184  A    between atoms: _442  and  _444
REMARK  185  A    between atoms: _444  and  _445
REMARK  186  A    between atoms: _447  and  _449
REMARK  187  A    between atoms: _449  and  _450
REMARK  188  A    between atoms: _449  and  _452
REMARK  189  A    between atoms: _452  and  _453
REMARK  190  A    between atoms: _459  and  _461
REMARK  191  A    between atoms: _461  and  _462
REMARK  192  A    between atoms: _461  and  _464
REMARK  193  A    between atoms: _464  and  _465
REMARK  194  A    between atoms: _468  and  _470
REMARK  195  A    between atoms: _470  and  _471
REMARK  196  A    between atoms: _470  and  _473
REMARK  197  A    between atoms: _473  and  _474
REMARK  198  A    between atoms: _477  and  _479
REMARK  199  A    between atoms: _479  and  _480
REMARK  200  A    between atoms: _479  and  _482
REMARK  201  A    between atoms: _482  and  _483
REMARK  202  A    between atoms: _487  and  _488
REMARK  203  A    between atoms: _493  and  _495
REMARK  204  A    between atoms: _495  and  _496
REMARK  205  A    between atoms: _495  and  _498
REMARK  206  A    between atoms: _501  and  _503
REMARK  207  A    between atoms: _503  and  _504
REMARK  208  A    between atoms: _503  and  _506
REMARK  209  A    between atoms: _506  and  _507
REMARK  210  A    between atoms: _512  and  _514
REMARK  211  A    between atoms: _514  and  _515
REMARK  212  A    between atoms: _514  and  _517
REMARK  213  A    between atoms: _517  and  _518
REMARK  214  A    between atoms: _521  and  _523
REMARK  215  A    between atoms: _523  and  _524
REMARK  216  A    between atoms: _523  and  _526
REMARK  217  A    between atoms: _526  and  _527
REMARK  218  A    between atoms: _530  and  _532
REMARK  219  A    between atoms: _532  and  _533
REMARK  220  A    between atoms: _535  and  _537
REMARK  221  A    between atoms: _537  and  _538
REMARK  222  A    between atoms: _537  and  _540
REMARK  223  A    between atoms: _540  and  _541
REMARK  224  A    between atoms: _541  and  _542
REMARK  225  A    between atoms: _542  and  _543
REMARK  226  A    between atoms: _552  and  _554
REMARK  227  A    between atoms: _554  and  _555
REMARK  228  A    between atoms: _554  and  _557
REMARK  229  A    between atoms: _557  and  _558
REMARK                            x       y       z     vdW  Elec       q    Type
REMARK                         _______ _______ _______ _____ _____    ______ ____
ROOT
ATOM      1  O   HOH     1      18.198  20.705  16.516  0.00  0.00    +0.000 OA
ENDROOT
TORSDOF 0
REMARK  Name = ../refined-set-2016/2qci/2qci_pocket.pdb
REMARK  229 active torsions:
REMARK  status: ('A' for Active; 'I' for Inactive)
REMARK    1  A    between atoms: _1  and  _3
REMARK    2  A    between atoms: _3  and  _4
REMARK    3  A    between atoms: _3  and  _6
REMARK    4  A    between atoms: _6  and  _7
REMARK    5  A    between atoms: _7  and  _8
REMARK    6  A    between atoms: _8  and  _9
REMARK    7  A    between atoms: _18  and  _20
REMARK    8  A    between atoms: _20  and  _21
REMARK    9  A    between atoms: _20  and  _23
REMARK   10  A    between atoms: _23  and  _24
REMARK   11  A    between atoms: _27  and  _29
REMARK   12  A    between atoms: _29  and  _30
REMARK   13  A    between atoms: _29  and  _32
REMARK   14  A    between atoms: _32  and  _33
REMARK   15  A    between atoms: _36  and  _38
REMARK   16  A    between atoms: _38  and  _39
REMARK   17  A    between atoms: _38  and  _41
REMARK   18  A    between atoms: _41  and  _42
REMARK   19  A    between atoms: _45  and  _47
REMARK   20  A    between atoms: _47  and  _48
REMARK   21  A    between atoms: _47  and  _50
REMARK   22  A    between atoms: _50  and  _51
REMARK   23  A    between atoms: _54  and  _56
REMARK   24  A    between atoms: _56  and  _57
REMARK   25  A    between atoms: _59  and  _61
REMARK   26  A    between atoms: _61  and  _62
REMARK   27  A    between atoms: _65  and  _67
REMARK   28  A    between atoms: _67  and  _68
REMARK   29  A    between atoms: _67  and  _70
REMARK   30  A    between atoms: _70  and  _71
REMARK   31  A    between atoms: _74  and  _76
REMARK   32  A    between atoms: _76  and  _77
REMARK   33  A    between atoms: _76  and  _79
REMARK   34  A    between atoms: _79  and  _80
REMARK   35  A    between atoms: _85  and  _87
REMARK   36  A    between atoms: _87  and  _88
REMARK   37  A    between atoms: _87  and  _90
REMARK   38  A    between atoms: _90  and  _91
REMARK   39  A    between atoms: _94  and  _96
REMARK   40  A    between atoms: _96  and  _97
REMARK   41  A    between atoms: _96  and  _99
REMARK   42  A    between atoms: _102  and  _104
REMARK   43  A    between atoms: _104  and  _105
REMARK   44  A    between atoms: _104  and  _107
REMARK   45  A    between atoms: _107  and  _108
REMARK   46  A    between atoms: _108  and  _109
REMARK   47  A    between atoms: _109  and  _110
REMARK   48  A    between atoms: _110  and  _111
REMARK   49  A    between atoms: _115  and  _117
REMARK   50  A    between atoms: _117  and  _118
REMARK   51  A    between atoms: _117  and  _120
REMARK   52  A    between atoms: _120  and  _121
REMARK   53  A    between atoms: _121  and  _122
REMARK   54  A    between atoms: _124  and  _126
REMARK   55  A    between atoms: _126  and  _127
REMARK   56  A    between atoms: _126  and  _129
REMARK   57  A    between atoms: _129  and  _130
REMARK   58  A    between atoms: _133  and  _135
REMARK   59  A    between atoms: _135  and  _136
REMARK   60  A    between atoms: _138  and  _140
REMARK   61  A    between atoms: _140  and  _141
REMARK   62  A    between atoms: _143  and  _145
REMARK   63  A    between atoms: _145  and  _146
REMARK   64  A    between atoms: _145  and  _148
REMARK   65  A    between atoms: _148  and  _149
REMARK   66  A    between atoms: _152  and  _154
REMARK   67  A    between atoms: _154  and  _155
REMARK   68  A    between atoms: _157  and  _159
REMARK   69  A    between atoms: _159  and  _160
REMARK   70  A    between atoms: _162  and  _164
REMARK   71  A    between atoms: _164  and  _165
REMARK   72  A    between atoms: _164  and  _167
REMARK   73  A    between atoms: _167  and  _168
REMARK   74  A    between atoms: _174  and  _176
REMARK   75  A    between atoms: _176  and  _177
REMARK   76  A    between atoms: _176  and  _179
REMARK   77  A    between atoms: _179  and  _180
REMARK   78  A    between atoms: _183  and  _185
REMARK   79  A    between atoms: _185  and  _186
REMARK   80  A    between atoms: _185  and  _188
REMARK   81  A    between atoms: _191  and  _193
REMARK   82  A    between atoms: _193  and  _194
REMARK   83  A    between atoms: _193  and  _196
REMARK   84  A    between atoms: _196  and  _197
REMARK   85  A    between atoms: _200  and  _202
REMARK   86  A    between atoms: _202  and  _203
REMARK   87  A    between atoms: _202  and  _205
REMARK   88  A    between atoms: _205  and  _206
REMARK   89  A    between atoms: _210  and  _211
REMARK   90  A    between atoms: _216  and  _218
REMARK   91  A    between atoms: _218  and  _219
REMARK   92  A    between atoms: _218  and  _221
REMARK   93  A    between atoms: _224  and  _226
REMARK   94  A    between atoms: _226  and  _227
REMARK   95  A    between atoms: _226  and  _229
REMARK   96  A    between atoms: _229  and  _230
REMARK   97  A    between atoms: _235  and  _237
REMARK   98  A    between atoms: _237  and  _238
REMARK   99  A    between atoms: _237  and  _240
REMARK  100  A    between atoms: _240  and  _241
REMARK  101  A    between atoms: _244  and  _246
REMARK  102  A    between atoms: _246  and  _247
REMARK  103  A    between atoms: _246  and  _249
REMARK  104  A    between atoms: _249  and  _250
REMARK  105  A    between atoms: _253  and  _255
REMARK  106  A    between atoms: _255  and  _256
REMARK  107  A    between atoms: _258  and  _260
REMARK  108  A    between atoms: _260  and  _261
REMARK  109  A    between atoms: _260  and  _263
REMARK  110  A    between atoms: _263  and  _264
REMARK  111  A    between atoms: _264  and  _265
REMARK  112  A    between atoms: _265  and  _266
REMARK  113  A    between atoms: _275  and  _277
REMARK  114  A    between atoms: _277  and  _278
REMARK  115  A    between atoms: _277  and  _280
REMARK  116  A    between atoms: _280  and  _281
REMARK  117  A    between atoms: _286  and  _288
REMARK  118  A    between atoms: _288  and  _289
REMARK  119  A    between atoms: _288  and  _291
REMARK  120  A    between atoms: _291  and  _292
REMARK  121  A    between atoms: _292  and  _293
REMARK  122  A    between atoms: _293  and  _294
REMARK  123  A    between atoms: _303  and  _305
REMARK  124  A    between atoms: _305  and  _306
REMARK  125  A    between atoms: _305  and  _308
REMARK  126  A    between atoms: _308  and  _309
REMARK  127  A    between atoms: _312  and  _314
REMARK  128  A    between atoms: _314  and  _315
REMARK  129  A    between atoms: _314  and  _317
REMARK  130  A    between atoms: _317  and  _318
REMARK  131  A    between atoms: _321  and  _323
REMARK  132  A    between atoms: _323  and  _324
REMARK  133  A    between atoms: _323  and  _326
REMARK  134  A    between atoms: _326  and  _327
REMARK  135  A    between atoms: _330  and  _332
REMARK  136  A    between atoms: _332  and  _333
REMARK  137  A    between atoms: _332  and  _335
REMARK  138  A    between atoms: _335  and  _336
REMARK  139  A    between atoms: _339  and  _341
REMARK  140  A    between atoms: _341  and  _342
REMARK  141  A    between atoms: _344  and  _346
REMARK  142  A    between atoms: _346  and  _347
REMARK  143  A    between atoms: _350  and  _352
REMARK  144  A    between atoms: _352  and  _353
REMARK  145  A    between atoms: _352  and  _355
REMARK  146  A    between atoms: _355  and  _356
REMARK  147  A    between atoms: _359  and  _361
REMARK  148  A    between atoms: _361  and  _362
REMARK  149  A    between atoms: _361  and  _364
REMARK  150  A    between atoms: _364  and  _365
REMARK  151  A    between atoms: _370  and  _372
REMARK  152  A    between atoms: _372  and  _373
REMARK  153  A    between atoms: _372  and  _375
REMARK  154  A    between atoms: _375  and  _376
REMARK  155  A    between atoms: _379  and  _381
REMARK  156  A    between atoms: _381  and  _382
REMARK  157  A    between atoms: _381  and  _384
REMARK  158  A    between atoms: _387  and  _389
REMARK  159  A    between atoms: _389  and  _390
REMARK  160  A    between atoms: _389  and  _392
REMARK  161  A    between atoms: _392  and  _393
REMARK  162  A    between atoms: _393  and  _394
REMARK  163  A    between atoms: _394  and  _395
REMARK  164  A    between atoms: _395  and  _396
REMARK  165  A    between atoms: _400  and  _402
REMARK  166  A    between atoms: _402  and  _403
REMARK  167  A    between atoms: _402  and  _405
REMARK  168  A    between atoms: _405  and  _406
REMARK  169  A    between atoms: _406  and  _407
REMARK  170  A    between atoms: _409  and  _411
REMARK  171  A    between atoms: _411  and  _412
REMARK  172  A    between atoms: _411  and  _414
REMARK  173  A    between atoms: _414  and  _415
REMARK  174  A    between atoms: _418  and  _420
REMARK  175  A    between atoms: _420  and  _421
REMARK  176  A    between atoms: _423  and  _425
REMARK  177  A    between atoms: _425  and  _426
REMARK  178  A    between atoms: _428  and  _430
REMARK  179  A    between atoms: _430  and  _431
REMARK  180  A    between atoms: _430  and  _433
REMARK  181  A    between atoms: _433  and  _434
REMARK  182  A    between atoms: _437  and  _439
REMARK  183  A    between atoms: _439  and  _440
REMARK  184  A    between atoms: _442  and  _444
REMARK  185  A    between atoms: _444  and  _445
REMARK  186  A    between atoms: _447  and  _449
REMARK  187  A    between atoms: _449  and  _450
REMARK  188  A    between atoms: _449  and  _452
REMARK  189  A    between atoms: _452  and  _453
REMARK  190  A    between atoms: _459  and  _461
REMARK  191  A    between atoms: _461  and  _462
REMARK  192  A    between atoms: _461  and  _464
REMARK  193  A    between atoms: _464  and  _465
REMARK  194  A    between atoms: _468  and  _470
REMARK  195  A    between atoms: _470  and  _471
REMARK  196  A    between atoms: _470  and  _473
REMARK  197  A    between atoms: _473  and  _474
REMARK  198  A    between atoms: _477  and  _479
REMARK  199  A    between atoms: _479  and  _480
REMARK  200  A    between atoms: _479  and  _482
REMARK  201  A    between atoms: _482  and  _483
REMARK  202  A    between atoms: _487  and  _488
REMARK  203  A    between atoms: _493  and  _495
REMARK  204  A    between atoms: _495  and  _496
REMARK  205  A    between atoms: _495  and  _498
REMARK  206  A    between atoms: _501  and  _503
REMARK  207  A    between atoms: _503  and  _504
REMARK  208  A    between atoms: _503  and  _506
REMARK  209  A    between atoms: _506  and  _507
REMARK  210  A    between atoms: _512  and  _514
REMARK  211  A    between atoms: _514  and  _515
REMARK  212  A    between atoms: _514  and  _517
REMARK  213  A    between atoms: _517  and  _518
REMARK  214  A    between atoms: _521  and  _523
REMARK  215  A    between atoms: _523  and  _524
REMARK  216  A    between atoms: _523  and  _526
REMARK  217  A    between atoms: _526  and  _527
REMARK  218  A    between atoms: _530  and  _532
REMARK  219  A    between atoms: _532  and  _533
REMARK  220  A    between atoms: _535  and  _537
REMARK  221  A    between atoms: _537  and  _538
REMARK  222  A    between atoms: _537  and  _540
REMARK  223  A    between atoms: _540  and  _541
REMARK  224  A    between atoms: _541  and  _542
REMARK  225  A    between atoms: _542  and  _543
REMARK  226  A    between atoms: _552  and  _554
REMARK  227  A    between atoms: _554  and  _555
REMARK  228  A    between atoms: _554  and  _557
REMARK  229  A    between atoms: _557  and  _558
REMARK                            x       y       z     vdW  Elec       q    Type
REMARK                         _______ _______ _______ _____ _____    ______ ____
ROOT
ATOM      1  O   HOH     1      15.861  15.716  11.591  0.00  0.00    +0.000 OA
ENDROOT
TORSDOF 0
REMARK  Name = ../refined-set-2016/2qci/2qci_pocket.pdb
REMARK  229 active torsions:
REMARK  status: ('A' for Active; 'I' for Inactive)
REMARK    1  A    between atoms: _1  and  _3
REMARK    2  A    between atoms: _3  and  _4
REMARK    3  A    between atoms: _3  and  _6
REMARK    4  A    between atoms: _6  and  _7
REMARK    5  A    between atoms: _7  and  _8
REMARK    6  A    between atoms: _8  and  _9
REMARK    7  A    between atoms: _18  and  _20
REMARK    8  A    between atoms: _20  and  _21
REMARK    9  A    between atoms: _20  and  _23
REMARK   10  A    between atoms: _23  and  _24
REMARK   11  A    between atoms: _27  and  _29
REMARK   12  A    between atoms: _29  and  _30
REMARK   13  A    between atoms: _29  and  _32
REMARK   14  A    between atoms: _32  and  _33
REMARK   15  A    between atoms: _36  and  _38
REMARK   16  A    between atoms: _38  and  _39
REMARK   17  A    between atoms: _38  and  _41
REMARK   18  A    between atoms: _41  and  _42
REMARK   19  A    between atoms: _45  and  _47
REMARK   20  A    between atoms: _47  and  _48
REMARK   21  A    between atoms: _47  and  _50
REMARK   22  A    between atoms: _50  and  _51
REMARK   23  A    between atoms: _54  and  _56
REMARK   24  A    between atoms: _56  and  _57
REMARK   25  A    between atoms: _59  and  _61
REMARK   26  A    between atoms: _61  and  _62
REMARK   27  A    between atoms: _65  and  _67
REMARK   28  A    between atoms: _67  and  _68
REMARK   29  A    between atoms: _67  and  _70
REMARK   30  A    between atoms: _70  and  _71
REMARK   31  A    between atoms: _74  and  _76
REMARK   32  A    between atoms: _76  and  _77
REMARK   33  A    between atoms: _76  and  _79
REMARK   34  A    between atoms: _79  and  _80
REMARK   35  A    between atoms: _85  and  _87
REMARK   36  A    between atoms: _87  and  _88
REMARK   37  A    between atoms: _87  and  _90
REMARK   38  A    between atoms: _90  and  _91
REMARK   39  A    between atoms: _94  and  _96
REMARK   40  A    between atoms: _96  and  _97
REMARK   41  A    between atoms: _96  and  _99
REMARK   42  A    between atoms: _102  and  _104
REMARK   43  A    between atoms: _104  and  _105
REMARK   44  A    between atoms: _104  and  _107
REMARK   45  A    between atoms: _107  and  _108
REMARK   46  A    between atoms: _108  and  _109
REMARK   47  A    between atoms: _109  and  _110
REMARK   48  A    between atoms: _110  and  _111
REMARK   49  A    between atoms: _115  and  _117
REMARK   50  A    between atoms: _117  and  _118
REMARK   51  A    between atoms: _117  and  _120
REMARK   52  A    between atoms: _120  and  _121
REMARK   53  A    between atoms: _121  and  _122
REMARK   54  A    between atoms: _124  and  _126
REMARK   55  A    between atoms: _126  and  _127
REMARK   56  A    between atoms: _126  and  _129
REMARK   57  A    between atoms: _129  and  _130
REMARK   58  A    between atoms: _133  and  _135
REMARK   59  A    between atoms: _135  and  _136
REMARK   60  A    between atoms: _138  and  _140
REMARK   61  A    between atoms: _140  and  _141
REMARK   62  A    between atoms: _143  and  _145
REMARK   63  A    between atoms: _145  and  _146
REMARK   64  A    between atoms: _145  and  _148
REMARK   65  A    between atoms: _148  and  _149
REMARK   66  A    between atoms: _152  and  _154
REMARK   67  A    between atoms: _154  and  _155
REMARK   68  A    between atoms: _157  and  _159
REMARK   69  A    between atoms: _159  and  _160
REMARK   70  A    between atoms: _162  and  _164
REMARK   71  A    between atoms: _164  and  _165
REMARK   72  A    between atoms: _164  and  _167
REMARK   73  A    between atoms: _167  and  _168
REMARK   74  A    between atoms: _174  and  _176
REMARK   75  A    between atoms: _176  and  _177
REMARK   76  A    between atoms: _176  and  _179
REMARK   77  A    between atoms: _179  and  _180
REMARK   78  A    between atoms: _183  and  _185
REMARK   79  A    between atoms: _185  and  _186
REMARK   80  A    between atoms: _185  and  _188
REMARK   81  A    between atoms: _191  and  _193
REMARK   82  A    between atoms: _193  and  _194
REMARK   83  A    between atoms: _193  and  _196
REMARK   84  A    between atoms: _196  and  _197
REMARK   85  A    between atoms: _200  and  _202
REMARK   86  A    between atoms: _202  and  _203
REMARK   87  A    between atoms: _202  and  _205
REMARK   88  A    between atoms: _205  and  _206
REMARK   89  A    between atoms: _210  and  _211
REMARK   90  A    between atoms: _216  and  _218
REMARK   91  A    between atoms: _218  and  _219
REMARK   92  A    between atoms: _218  and  _221
REMARK   93  A    between atoms: _224  and  _226
REMARK   94  A    between atoms: _226  and  _227
REMARK   95  A    between atoms: _226  and  _229
REMARK   96  A    between atoms: _229  and  _230
REMARK   97  A    between atoms: _235  and  _237
REMARK   98  A    between atoms: _237  and  _238
REMARK   99  A    between atoms: _237  and  _240
REMARK  100  A    between atoms: _240  and  _241
REMARK  101  A    between atoms: _244  and  _246
REMARK  102  A    between atoms: _246  and  _247
REMARK  103  A    between atoms: _246  and  _249
REMARK  104  A    between atoms: _249  and  _250
REMARK  105  A    between atoms: _253  and  _255
REMARK  106  A    between atoms: _255  and  _256
REMARK  107  A    between atoms: _258  and  _260
REMARK  108  A    between atoms: _260  and  _261
REMARK  109  A    between atoms: _260  and  _263
REMARK  110  A    between atoms: _263  and  _264
REMARK  111  A    between atoms: _264  and  _265
REMARK  112  A    between atoms: _265  and  _266
REMARK  113  A    between atoms: _275  and  _277
REMARK  114  A    between atoms: _277  and  _278
REMARK  115  A    between atoms: _277  and  _280
REMARK  116  A    between atoms: _280  and  _281
REMARK  117  A    between atoms: _286  and  _288
REMARK  118  A    between atoms: _288  and  _289
REMARK  119  A    between atoms: _288  and  _291
REMARK  120  A    between atoms: _291  and  _292
REMARK  121  A    between atoms: _292  and  _293
REMARK  122  A    between atoms: _293  and  _294
REMARK  123  A    between atoms: _303  and  _305
REMARK  124  A    between atoms: _305  and  _306
REMARK  125  A    between atoms: _305  and  _308
REMARK  126  A    between atoms: _308  and  _309
REMARK  127  A    between atoms: _312  and  _314
REMARK  128  A    between atoms: _314  and  _315
REMARK  129  A    between atoms: _314  and  _317
REMARK  130  A    between atoms: _317  and  _318
REMARK  131  A    between atoms: _321  and  _323
REMARK  132  A    between atoms: _323  and  _324
REMARK  133  A    between atoms: _323  and  _326
REMARK  134  A    between atoms: _326  and  _327
REMARK  135  A    between atoms: _330  and  _332
REMARK  136  A    between atoms: _332  and  _333
REMARK  137  A    between atoms: _332  and  _335
REMARK  138  A    between atoms: _335  and  _336
REMARK  139  A    between atoms: _339  and  _341
REMARK  140  A    between atoms: _341  and  _342
REMARK  141  A    between atoms: _344  and  _346
REMARK  142  A    between atoms: _346  and  _347
REMARK  143  A    between atoms: _350  and  _352
REMARK  144  A    between atoms: _352  and  _353
REMARK  145  A    between atoms: _352  and  _355
REMARK  146  A    between atoms: _355  and  _356
REMARK  147  A    between atoms: _359  and  _361
REMARK  148  A    between atoms: _361  and  _362
REMARK  149  A    between atoms: _361  and  _364
REMARK  150  A    between atoms: _364  and  _365
REMARK  151  A    between atoms: _370  and  _372
REMARK  152  A    between atoms: _372  and  _373
REMARK  153  A    between atoms: _372  and  _375
REMARK  154  A    between atoms: _375  and  _376
REMARK  155  A    between atoms: _379  and  _381
REMARK  156  A    between atoms: _381  and  _382
REMARK  157  A    between atoms: _381  and  _384
REMARK  158  A    between atoms: _387  and  _389
REMARK  159  A    between atoms: _389  and  _390
REMARK  160  A    between atoms: _389  and  _392
REMARK  161  A    between atoms: _392  and  _393
REMARK  162  A    between atoms: _393  and  _394
REMARK  163  A    between atoms: _394  and  _395
REMARK  164  A    between atoms: _395  and  _396
REMARK  165  A    between atoms: _400  and  _402
REMARK  166  A    between atoms: _402  and  _403
REMARK  167  A    between atoms: _402  and  _405
REMARK  168  A    between atoms: _405  and  _406
REMARK  169  A    between atoms: _406  and  _407
REMARK  170  A    between atoms: _409  and  _411
REMARK  171  A    between atoms: _411  and  _412
REMARK  172  A    between atoms: _411  and  _414
REMARK  173  A    between atoms: _414  and  _415
REMARK  174  A    between atoms: _418  and  _420
REMARK  175  A    between atoms: _420  and  _421
REMARK  176  A    between atoms: _423  and  _425
REMARK  177  A    between atoms: _425  and  _426
REMARK  178  A    between atoms: _428  and  _430
REMARK  179  A    between atoms: _430  and  _431
REMARK  180  A    between atoms: _430  and  _433
REMARK  181  A    between atoms: _433  and  _434
REMARK  182  A    between atoms: _437  and  _439
REMARK  183  A    between atoms: _439  and  _440
REMARK  184  A    between atoms: _442  and  _444
REMARK  185  A    between atoms: _444  and  _445
REMARK  186  A    between atoms: _447  and  _449
REMARK  187  A    between atoms: _449  and  _450
REMARK  188  A    between atoms: _449  and  _452
REMARK  189  A    between atoms: _452  and  _453
REMARK  190  A    between atoms: _459  and  _461
REMARK  191  A    between atoms: _461  and  _462
REMARK  192  A    between atoms: _461  and  _464
REMARK  193  A    between atoms: _464  and  _465
REMARK  194  A    between atoms: _468  and  _470
REMARK  195  A    between atoms: _470  and  _471
REMARK  196  A    between atoms: _470  and  _473
REMARK  197  A    between atoms: _473  and  _474
REMARK  198  A    between atoms: _477  and  _479
REMARK  199  A    between atoms: _479  and  _480
REMARK  200  A    between atoms: _479  and  _482
REMARK  201  A    between atoms: _482  and  _483
REMARK  202  A    between atoms: _487  and  _488
REMARK  203  A    between atoms: _493  and  _495
REMARK  204  A    between atoms: _495  and  _496
REMARK  205  A    between atoms: _495  and  _498
REMARK  206  A    between atoms: _501  and  _503
REMARK  207  A    between atoms: _503  and  _504
REMARK  208  A    between atoms: _503  and  _506
REMARK  209  A    between atoms: _506  and  _507
REMARK  210  A    between atoms: _512  and  _514
REMARK  211  A    between atoms: _514  and  _515
REMARK  212  A    between atoms: _514  and  _517
REMARK  213  A    between atoms: _517  and  _518
REMARK  214  A    between atoms: _521  and  _523
REMARK  215  A    between atoms: _523  and  _524
REMARK  216  A    between atoms: _523  and  _526
REMARK  217  A    between atoms: _526  and  _527
REMARK  218  A    between atoms: _530  and  _532
REMARK  219  A    between atoms: _532  and  _533
REMARK  220  A    between atoms: _535  and  _537
REMARK  221  A    between atoms: _537  and  _538
REMARK  222  A    between atoms: _537  and  _540
REMARK  223  A    between atoms: _540  and  _541
REMARK  224  A    between atoms: _541  and  _542
REMARK  225  A    between atoms: _542  and  _543
REMARK  226  A    between atoms: _552  and  _554
REMARK  227  A    between atoms: _554  and  _555
REMARK  228  A    between atoms: _554  and  _557
REMARK  229  A    between atoms: _557  and  _558
REMARK                            x       y       z     vdW  Elec       q    Type
REMARK                         _______ _______ _______ _____ _____    ______ ____
ROOT
ATOM      1  O   HOH     1       4.489  18.847  22.421  0.00  0.00    +0.000 OA
ENDROOT
TORSDOF 0
REMARK  Name = ../refined-set-2016/2qci/2qci_pocket.pdb
REMARK  229 active torsions:
REMARK  status: ('A' for Active; 'I' for Inactive)
REMARK    1  A    between atoms: _1  and  _3
REMARK    2  A    between atoms: _3  and  _4
REMARK    3  A    between atoms: _3  and  _6
REMARK    4  A    between atoms: _6  and  _7
REMARK    5  A    between atoms: _7  and  _8
REMARK    6  A    between atoms: _8  and  _9
REMARK    7  A    between atoms: _18  and  _20
REMARK    8  A    between atoms: _20  and  _21
REMARK    9  A    between atoms: _20  and  _23
REMARK   10  A    between atoms: _23  and  _24
REMARK   11  A    between atoms: _27  and  _29
REMARK   12  A    between atoms: _29  and  _30
REMARK   13  A    between atoms: _29  and  _32
REMARK   14  A    between atoms: _32  and  _33
REMARK   15  A    between atoms: _36  and  _38
REMARK   16  A    between atoms: _38  and  _39
REMARK   17  A    between atoms: _38  and  _41
REMARK   18  A    between atoms: _41  and  _42
REMARK   19  A    between atoms: _45  and  _47
REMARK   20  A    between atoms: _47  and  _48
REMARK   21  A    between atoms: _47  and  _50
REMARK   22  A    between atoms: _50  and  _51
REMARK   23  A    between atoms: _54  and  _56
REMARK   24  A    between atoms: _56  and  _57
REMARK   25  A    between atoms: _59  and  _61
REMARK   26  A    between atoms: _61  and  _62
REMARK   27  A    between atoms: _65  and  _67
REMARK   28  A    between atoms: _67  and  _68
REMARK   29  A    between atoms: _67  and  _70
REMARK   30  A    between atoms: _70  and  _71
REMARK   31  A    between atoms: _74  and  _76
REMARK   32  A    between atoms: _76  and  _77
REMARK   33  A    between atoms: _76  and  _79
REMARK   34  A    between atoms: _79  and  _80
REMARK   35  A    between atoms: _85  and  _87
REMARK   36  A    between atoms: _87  and  _88
REMARK   37  A    between atoms: _87  and  _90
REMARK   38  A    between atoms: _90  and  _91
REMARK   39  A    between atoms: _94  and  _96
REMARK   40  A    between atoms: _96  and  _97
REMARK   41  A    between atoms: _96  and  _99
REMARK   42  A    between atoms: _102  and  _104
REMARK   43  A    between atoms: _104  and  _105
REMARK   44  A    between atoms: _104  and  _107
REMARK   45  A    between atoms: _107  and  _108
REMARK   46  A    between atoms: _108  and  _109
REMARK   47  A    between atoms: _109  and  _110
REMARK   48  A    between atoms: _110  and  _111
REMARK   49  A    between atoms: _115  and  _117
REMARK   50  A    between atoms: _117  and  _118
REMARK   51  A    between atoms: _117  and  _120
REMARK   52  A    between atoms: _120  and  _121
REMARK   53  A    between atoms: _121  and  _122
REMARK   54  A    between atoms: _124  and  _126
REMARK   55  A    between atoms: _126  and  _127
REMARK   56  A    between atoms: _126  and  _129
REMARK   57  A    between atoms: _129  and  _130
REMARK   58  A    between atoms: _133  and  _135
REMARK   59  A    between atoms: _135  and  _136
REMARK   60  A    between atoms: _138  and  _140
REMARK   61  A    between atoms: _140  and  _141
REMARK   62  A    between atoms: _143  and  _145
REMARK   63  A    between atoms: _145  and  _146
REMARK   64  A    between atoms: _145  and  _148
REMARK   65  A    between atoms: _148  and  _149
REMARK   66  A    between atoms: _152  and  _154
REMARK   67  A    between atoms: _154  and  _155
REMARK   68  A    between atoms: _157  and  _159
REMARK   69  A    between atoms: _159  and  _160
REMARK   70  A    between atoms: _162  and  _164
REMARK   71  A    between atoms: _164  and  _165
REMARK   72  A    between atoms: _164  and  _167
REMARK   73  A    between atoms: _167  and  _168
REMARK   74  A    between atoms: _174  and  _176
REMARK   75  A    between atoms: _176  and  _177
REMARK   76  A    between atoms: _176  and  _179
REMARK   77  A    between atoms: _179  and  _180
REMARK   78  A    between atoms: _183  and  _185
REMARK   79  A    between atoms: _185  and  _186
REMARK   80  A    between atoms: _185  and  _188
REMARK   81  A    between atoms: _191  and  _193
REMARK   82  A    between atoms: _193  and  _194
REMARK   83  A    between atoms: _193  and  _196
REMARK   84  A    between atoms: _196  and  _197
REMARK   85  A    between atoms: _200  and  _202
REMARK   86  A    between atoms: _202  and  _203
REMARK   87  A    between atoms: _202  and  _205
REMARK   88  A    between atoms: _205  and  _206
REMARK   89  A    between atoms: _210  and  _211
REMARK   90  A    between atoms: _216  and  _218
REMARK   91  A    between atoms: _218  and  _219
REMARK   92  A    between atoms: _218  and  _221
REMARK   93  A    between atoms: _224  and  _226
REMARK   94  A    between atoms: _226  and  _227
REMARK   95  A    between atoms: _226  and  _229
REMARK   96  A    between atoms: _229  and  _230
REMARK   97  A    between atoms: _235  and  _237
REMARK   98  A    between atoms: _237  and  _238
REMARK   99  A    between atoms: _237  and  _240
REMARK  100  A    between atoms: _240  and  _241
REMARK  101  A    between atoms: _244  and  _246
REMARK  102  A    between atoms: _246  and  _247
REMARK  103  A    between atoms: _246  and  _249
REMARK  104  A    between atoms: _249  and  _250
REMARK  105  A    between atoms: _253  and  _255
REMARK  106  A    between atoms: _255  and  _256
REMARK  107  A    between atoms: _258  and  _260
REMARK  108  A    between atoms: _260  and  _261
REMARK  109  A    between atoms: _260  and  _263
REMARK  110  A    between atoms: _263  and  _264
REMARK  111  A    between atoms: _264  and  _265
REMARK  112  A    between atoms: _265  and  _266
REMARK  113  A    between atoms: _275  and  _277
REMARK  114  A    between atoms: _277  and  _278
REMARK  115  A    between atoms: _277  and  _280
REMARK  116  A    between atoms: _280  and  _281
REMARK  117  A    between atoms: _286  and  _288
REMARK  118  A    between atoms: _288  and  _289
REMARK  119  A    between atoms: _288  and  _291
REMARK  120  A    between atoms: _291  and  _292
REMARK  121  A    between atoms: _292  and  _293
REMARK  122  A    between atoms: _293  and  _294
REMARK  123  A    between atoms: _303  and  _305
REMARK  124  A    between atoms: _305  and  _306
REMARK  125  A    between atoms: _305  and  _308
REMARK  126  A    between atoms: _308  and  _309
REMARK  127  A    between atoms: _312  and  _314
REMARK  128  A    between atoms: _314  and  _315
REMARK  129  A    between atoms: _314  and  _317
REMARK  130  A    between atoms: _317  and  _318
REMARK  131  A    between atoms: _321  and  _323
REMARK  132  A    between atoms: _323  and  _324
REMARK  133  A    between atoms: _323  and  _326
REMARK  134  A    between atoms: _326  and  _327
REMARK  135  A    between atoms: _330  and  _332
REMARK  136  A    between atoms: _332  and  _333
REMARK  137  A    between atoms: _332  and  _335
REMARK  138  A    between atoms: _335  and  _336
REMARK  139  A    between atoms: _339  and  _341
REMARK  140  A    between atoms: _341  and  _342
REMARK  141  A    between atoms: _344  and  _346
REMARK  142  A    between atoms: _346  and  _347
REMARK  143  A    between atoms: _350  and  _352
REMARK  144  A    between atoms: _352  and  _353
REMARK  145  A    between atoms: _352  and  _355
REMARK  146  A    between atoms: _355  and  _356
REMARK  147  A    between atoms: _359  and  _361
REMARK  148  A    between atoms: _361  and  _362
REMARK  149  A    between atoms: _361  and  _364
REMARK  150  A    between atoms: _364  and  _365
REMARK  151  A    between atoms: _370  and  _372
REMARK  152  A    between atoms: _372  and  _373
REMARK  153  A    between atoms: _372  and  _375
REMARK  154  A    between atoms: _375  and  _376
REMARK  155  A    between atoms: _379  and  _381
REMARK  156  A    between atoms: _381  and  _382
REMARK  157  A    between atoms: _381  and  _384
REMARK  158  A    between atoms: _387  and  _389
REMARK  159  A    between atoms: _389  and  _390
REMARK  160  A    between atoms: _389  and  _392
REMARK  161  A    between atoms: _392  and  _393
REMARK  162  A    between atoms: _393  and  _394
REMARK  163  A    between atoms: _394  and  _395
REMARK  164  A    between atoms: _395  and  _396
REMARK  165  A    between atoms: _400  and  _402
REMARK  166  A    between atoms: _402  and  _403
REMARK  167  A    between atoms: _402  and  _405
REMARK  168  A    between atoms: _405  and  _406
REMARK  169  A    between atoms: _406  and  _407
REMARK  170  A    between atoms: _409  and  _411
REMARK  171  A    between atoms: _411  and  _412
REMARK  172  A    between atoms: _411  and  _414
REMARK  173  A    between atoms: _414  and  _415
REMARK  174  A    between atoms: _418  and  _420
REMARK  175  A    between atoms: _420  and  _421
REMARK  176  A    between atoms: _423  and  _425
REMARK  177  A    between atoms: _425  and  _426
REMARK  178  A    between atoms: _428  and  _430
REMARK  179  A    between atoms: _430  and  _431
REMARK  180  A    between atoms: _430  and  _433
REMARK  181  A    between atoms: _433  and  _434
REMARK  182  A    between atoms: _437  and  _439
REMARK  183  A    between atoms: _439  and  _440
REMARK  184  A    between atoms: _442  and  _444
REMARK  185  A    between atoms: _444  and  _445
REMARK  186  A    between atoms: _447  and  _449
REMARK  187  A    between atoms: _449  and  _450
REMARK  188  A    between atoms: _449  and  _452
REMARK  189  A    between atoms: _452  and  _453
REMARK  190  A    between atoms: _459  and  _461
REMARK  191  A    between atoms: _461  and  _462
REMARK  192  A    between atoms: _461  and  _464
REMARK  193  A    between atoms: _464  and  _465
REMARK  194  A    between atoms: _468  and  _470
REMARK  195  A    between atoms: _470  and  _471
REMARK  196  A    between atoms: _470  and  _473
REMARK  197  A    between atoms: _473  and  _474
REMARK  198  A    between atoms: _477  and  _479
REMARK  199  A    between atoms: _479  and  _480
REMARK  200  A    between atoms: _479  and  _482
REMARK  201  A    between atoms: _482  and  _483
REMARK  202  A    between atoms: _487  and  _488
REMARK  203  A    between atoms: _493  and  _495
REMARK  204  A    between atoms: _495  and  _496
REMARK  205  A    between atoms: _495  and  _498
REMARK  206  A    between atoms: _501  and  _503
REMARK  207  A    between atoms: _503  and  _504
REMARK  208  A    between atoms: _503  and  _506
REMARK  209  A    between atoms: _506  and  _507
REMARK  210  A    between atoms: _512  and  _514
REMARK  211  A    between atoms: _514  and  _515
REMARK  212  A    between atoms: _514  and  _517
REMARK  213  A    between atoms: _517  and  _518
REMARK  214  A    between atoms: _521  and  _523
REMARK  215  A    between atoms: _523  and  _524
REMARK  216  A    between atoms: _523  and  _526
REMARK  217  A    between atoms: _526  and  _527
REMARK  218  A    between atoms: _530  and  _532
REMARK  219  A    between atoms: _532  and  _533
REMARK  220  A    between atoms: _535  and  _537
REMARK  221  A    between atoms: _537  and  _538
REMARK  222  A    between atoms: _537  and  _540
REMARK  223  A    between atoms: _540  and  _541
REMARK  224  A    between atoms: _541  and  _542
REMARK  225  A    between atoms: _542  and  _543
REMARK  226  A    between atoms: _552  and  _554
REMARK  227  A    between atoms: _554  and  _555
REMARK  228  A    between atoms: _554  and  _557
REMARK  229  A    between atoms: _557  and  _558
REMARK                            x       y       z     vdW  Elec       q    Type
REMARK                         _______ _______ _______ _____ _____    ______ ____
ROOT
ATOM      1  O   HOH     1      13.392  16.025  11.448  0.00  0.00    +0.000 OA
ENDROOT
TORSDOF 0
REMARK  Name = ../refined-set-2016/2qci/2qci_pocket.pdb
REMARK  229 active torsions:
REMARK  status: ('A' for Active; 'I' for Inactive)
REMARK    1  A    between atoms: _1  and  _3
REMARK    2  A    between atoms: _3  and  _4
REMARK    3  A    between atoms: _3  and  _6
REMARK    4  A    between atoms: _6  and  _7
REMARK    5  A    between atoms: _7  and  _8
REMARK    6  A    between atoms: _8  and  _9
REMARK    7  A    between atoms: _18  and  _20
REMARK    8  A    between atoms: _20  and  _21
REMARK    9  A    between atoms: _20  and  _23
REMARK   10  A    between atoms: _23  and  _24
REMARK   11  A    between atoms: _27  and  _29
REMARK   12  A    between atoms: _29  and  _30
REMARK   13  A    between atoms: _29  and  _32
REMARK   14  A    between atoms: _32  and  _33
REMARK   15  A    between atoms: _36  and  _38
REMARK   16  A    between atoms: _38  and  _39
REMARK   17  A    between atoms: _38  and  _41
REMARK   18  A    between atoms: _41  and  _42
REMARK   19  A    between atoms: _45  and  _47
REMARK   20  A    between atoms: _47  and  _48
REMARK   21  A    between atoms: _47  and  _50
REMARK   22  A    between atoms: _50  and  _51
REMARK   23  A    between atoms: _54  and  _56
REMARK   24  A    between atoms: _56  and  _57
REMARK   25  A    between atoms: _59  and  _61
REMARK   26  A    between atoms: _61  and  _62
REMARK   27  A    between atoms: _65  and  _67
REMARK   28  A    between atoms: _67  and  _68
REMARK   29  A    between atoms: _67  and  _70
REMARK   30  A    between atoms: _70  and  _71
REMARK   31  A    between atoms: _74  and  _76
REMARK   32  A    between atoms: _76  and  _77
REMARK   33  A    between atoms: _76  and  _79
REMARK   34  A    between atoms: _79  and  _80
REMARK   35  A    between atoms: _85  and  _87
REMARK   36  A    between atoms: _87  and  _88
REMARK   37  A    between atoms: _87  and  _90
REMARK   38  A    between atoms: _90  and  _91
REMARK   39  A    between atoms: _94  and  _96
REMARK   40  A    between atoms: _96  and  _97
REMARK   41  A    between atoms: _96  and  _99
REMARK   42  A    between atoms: _102  and  _104
REMARK   43  A    between atoms: _104  and  _105
REMARK   44  A    between atoms: _104  and  _107
REMARK   45  A    between atoms: _107  and  _108
REMARK   46  A    between atoms: _108  and  _109
REMARK   47  A    between atoms: _109  and  _110
REMARK   48  A    between atoms: _110  and  _111
REMARK   49  A    between atoms: _115  and  _117
REMARK   50  A    between atoms: _117  and  _118
REMARK   51  A    between atoms: _117  and  _120
REMARK   52  A    between atoms: _120  and  _121
REMARK   53  A    between atoms: _121  and  _122
REMARK   54  A    between atoms: _124  and  _126
REMARK   55  A    between atoms: _126  and  _127
REMARK   56  A    between atoms: _126  and  _129
REMARK   57  A    between atoms: _129  and  _130
REMARK   58  A    between atoms: _133  and  _135
REMARK   59  A    between atoms: _135  and  _136
REMARK   60  A    between atoms: _138  and  _140
REMARK   61  A    between atoms: _140  and  _141
REMARK   62  A    between atoms: _143  and  _145
REMARK   63  A    between atoms: _145  and  _146
REMARK   64  A    between atoms: _145  and  _148
REMARK   65  A    between atoms: _148  and  _149
REMARK   66  A    between atoms: _152  and  _154
REMARK   67  A    between atoms: _154  and  _155
REMARK   68  A    between atoms: _157  and  _159
REMARK   69  A    between atoms: _159  and  _160
REMARK   70  A    between atoms: _162  and  _164
REMARK   71  A    between atoms: _164  and  _165
REMARK   72  A    between atoms: _164  and  _167
REMARK   73  A    between atoms: _167  and  _168
REMARK   74  A    between atoms: _174  and  _176
REMARK   75  A    between atoms: _176  and  _177
REMARK   76  A    between atoms: _176  and  _179
REMARK   77  A    between atoms: _179  and  _180
REMARK   78  A    between atoms: _183  and  _185
REMARK   79  A    between atoms: _185  and  _186
REMARK   80  A    between atoms: _185  and  _188
REMARK   81  A    between atoms: _191  and  _193
REMARK   82  A    between atoms: _193  and  _194
REMARK   83  A    between atoms: _193  and  _196
REMARK   84  A    between atoms: _196  and  _197
REMARK   85  A    between atoms: _200  and  _202
REMARK   86  A    between atoms: _202  and  _203
REMARK   87  A    between atoms: _202  and  _205
REMARK   88  A    between atoms: _205  and  _206
REMARK   89  A    between atoms: _210  and  _211
REMARK   90  A    between atoms: _216  and  _218
REMARK   91  A    between atoms: _218  and  _219
REMARK   92  A    between atoms: _218  and  _221
REMARK   93  A    between atoms: _224  and  _226
REMARK   94  A    between atoms: _226  and  _227
REMARK   95  A    between atoms: _226  and  _229
REMARK   96  A    between atoms: _229  and  _230
REMARK   97  A    between atoms: _235  and  _237
REMARK   98  A    between atoms: _237  and  _238
REMARK   99  A    between atoms: _237  and  _240
REMARK  100  A    between atoms: _240  and  _241
REMARK  101  A    between atoms: _244  and  _246
REMARK  102  A    between atoms: _246  and  _247
REMARK  103  A    between atoms: _246  and  _249
REMARK  104  A    between atoms: _249  and  _250
REMARK  105  A    between atoms: _253  and  _255
REMARK  106  A    between atoms: _255  and  _256
REMARK  107  A    between atoms: _258  and  _260
REMARK  108  A    between atoms: _260  and  _261
REMARK  109  A    between atoms: _260  and  _263
REMARK  110  A    between atoms: _263  and  _264
REMARK  111  A    between atoms: _264  and  _265
REMARK  112  A    between atoms: _265  and  _266
REMARK  113  A    between atoms: _275  and  _277
REMARK  114  A    between atoms: _277  and  _278
REMARK  115  A    between atoms: _277  and  _280
REMARK  116  A    between atoms: _280  and  _281
REMARK  117  A    between atoms: _286  and  _288
REMARK  118  A    between atoms: _288  and  _289
REMARK  119  A    between atoms: _288  and  _291
REMARK  120  A    between atoms: _291  and  _292
REMARK  121  A    between atoms: _292  and  _293
REMARK  122  A    between atoms: _293  and  _294
REMARK  123  A    between atoms: _303  and  _305
REMARK  124  A    between atoms: _305  and  _306
REMARK  125  A    between atoms: _305  and  _308
REMARK  126  A    between atoms: _308  and  _309
REMARK  127  A    between atoms: _312  and  _314
REMARK  128  A    between atoms: _314  and  _315
REMARK  129  A    between atoms: _314  and  _317
REMARK  130  A    between atoms: _317  and  _318
REMARK  131  A    between atoms: _321  and  _323
REMARK  132  A    between atoms: _323  and  _324
REMARK  133  A    between atoms: _323  and  _326
REMARK  134  A    between atoms: _326  and  _327
REMARK  135  A    between atoms: _330  and  _332
REMARK  136  A    between atoms: _332  and  _333
REMARK  137  A    between atoms: _332  and  _335
REMARK  138  A    between atoms: _335  and  _336
REMARK  139  A    between atoms: _339  and  _341
REMARK  140  A    between atoms: _341  and  _342
REMARK  141  A    between atoms: _344  and  _346
REMARK  142  A    between atoms: _346  and  _347
REMARK  143  A    between atoms: _350  and  _352
REMARK  144  A    between atoms: _352  and  _353
REMARK  145  A    between atoms: _352  and  _355
REMARK  146  A    between atoms: _355  and  _356
REMARK  147  A    between atoms: _359  and  _361
REMARK  148  A    between atoms: _361  and  _362
REMARK  149  A    between atoms: _361  and  _364
REMARK  150  A    between atoms: _364  and  _365
REMARK  151  A    between atoms: _370  and  _372
REMARK  152  A    between atoms: _372  and  _373
REMARK  153  A    between atoms: _372  and  _375
REMARK  154  A    between atoms: _375  and  _376
REMARK  155  A    between atoms: _379  and  _381
REMARK  156  A    between atoms: _381  and  _382
REMARK  157  A    between atoms: _381  and  _384
REMARK  158  A    between atoms: _387  and  _389
REMARK  159  A    between atoms: _389  and  _390
REMARK  160  A    between atoms: _389  and  _392
REMARK  161  A    between atoms: _392  and  _393
REMARK  162  A    between atoms: _393  and  _394
REMARK  163  A    between atoms: _394  and  _395
REMARK  164  A    between atoms: _395  and  _396
REMARK  165  A    between atoms: _400  and  _402
REMARK  166  A    between atoms: _402  and  _403
REMARK  167  A    between atoms: _402  and  _405
REMARK  168  A    between atoms: _405  and  _406
REMARK  169  A    between atoms: _406  and  _407
REMARK  170  A    between atoms: _409  and  _411
REMARK  171  A    between atoms: _411  and  _412
REMARK  172  A    between atoms: _411  and  _414
REMARK  173  A    between atoms: _414  and  _415
REMARK  174  A    between atoms: _418  and  _420
REMARK  175  A    between atoms: _420  and  _421
REMARK  176  A    between atoms: _423  and  _425
REMARK  177  A    between atoms: _425  and  _426
REMARK  178  A    between atoms: _428  and  _430
REMARK  179  A    between atoms: _430  and  _431
REMARK  180  A    between atoms: _430  and  _433
REMARK  181  A    between atoms: _433  and  _434
REMARK  182  A    between atoms: _437  and  _439
REMARK  183  A    between atoms: _439  and  _440
REMARK  184  A    between atoms: _442  and  _444
REMARK  185  A    between atoms: _444  and  _445
REMARK  186  A    between atoms: _447  and  _449
REMARK  187  A    between atoms: _449  and  _450
REMARK  188  A    between atoms: _449  and  _452
REMARK  189  A    between atoms: _452  and  _453
REMARK  190  A    between atoms: _459  and  _461
REMARK  191  A    between atoms: _461  and  _462
REMARK  192  A    between atoms: _461  and  _464
REMARK  193  A    between atoms: _464  and  _465
REMARK  194  A    between atoms: _468  and  _470
REMARK  195  A    between atoms: _470  and  _471
REMARK  196  A    between atoms: _470  and  _473
REMARK  197  A    between atoms: _473  and  _474
REMARK  198  A    between atoms: _477  and  _479
REMARK  199  A    between atoms: _479  and  _480
REMARK  200  A    between atoms: _479  and  _482
REMARK  201  A    between atoms: _482  and  _483
REMARK  202  A    between atoms: _487  and  _488
REMARK  203  A    between atoms: _493  and  _495
REMARK  204  A    between atoms: _495  and  _496
REMARK  205  A    between atoms: _495  and  _498
REMARK  206  A    between atoms: _501  and  _503
REMARK  207  A    between atoms: _503  and  _504
REMARK  208  A    between atoms: _503  and  _506
REMARK  209  A    between atoms: _506  and  _507
REMARK  210  A    between atoms: _512  and  _514
REMARK  211  A    between atoms: _514  and  _515
REMARK  212  A    between atoms: _514  and  _517
REMARK  213  A    between atoms: _517  and  _518
REMARK  214  A    between atoms: _521  and  _523
REMARK  215  A    between atoms: _523  and  _524
REMARK  216  A    between atoms: _523  and  _526
REMARK  217  A    between atoms: _526  and  _527
REMARK  218  A    between atoms: _530  and  _532
REMARK  219  A    between atoms: _532  and  _533
REMARK  220  A    between atoms: _535  and  _537
REMARK  221  A    between atoms: _537  and  _538
REMARK  222  A    between atoms: _537  and  _540
REMARK  223  A    between atoms: _540  and  _541
REMARK  224  A    between atoms: _541  and  _542
REMARK  225  A    between atoms: _542  and  _543
REMARK  226  A    between atoms: _552  and  _554
REMARK  227  A    between atoms: _554  and  _555
REMARK  228  A    between atoms: _554  and  _557
REMARK  229  A    between atoms: _557  and  _558
REMARK                            x       y       z     vdW  Elec       q    Type
REMARK                         _______ _______ _______ _____ _____    ______ ____
ROOT
ATOM      1  O   HOH     1      23.493  27.910  26.317  0.00  0.00    +0.000 OA
ENDROOT
TORSDOF 0
REMARK  Name = ../refined-set-2016/2qci/2qci_pocket.pdb
REMARK  229 active torsions:
REMARK  status: ('A' for Active; 'I' for Inactive)
REMARK    1  A    between atoms: _1  and  _3
REMARK    2  A    between atoms: _3  and  _4
REMARK    3  A    between atoms: _3  and  _6
REMARK    4  A    between atoms: _6  and  _7
REMARK    5  A    between atoms: _7  and  _8
REMARK    6  A    between atoms: _8  and  _9
REMARK    7  A    between atoms: _18  and  _20
REMARK    8  A    between atoms: _20  and  _21
REMARK    9  A    between atoms: _20  and  _23
REMARK   10  A    between atoms: _23  and  _24
REMARK   11  A    between atoms: _27  and  _29
REMARK   12  A    between atoms: _29  and  _30
REMARK   13  A    between atoms: _29  and  _32
REMARK   14  A    between atoms: _32  and  _33
REMARK   15  A    between atoms: _36  and  _38
REMARK   16  A    between atoms: _38  and  _39
REMARK   17  A    between atoms: _38  and  _41
REMARK   18  A    between atoms: _41  and  _42
REMARK   19  A    between atoms: _45  and  _47
REMARK   20  A    between atoms: _47  and  _48
REMARK   21  A    between atoms: _47  and  _50
REMARK   22  A    between atoms: _50  and  _51
REMARK   23  A    between atoms: _54  and  _56
REMARK   24  A    between atoms: _56  and  _57
REMARK   25  A    between atoms: _59  and  _61
REMARK   26  A    between atoms: _61  and  _62
REMARK   27  A    between atoms: _65  and  _67
REMARK   28  A    between atoms: _67  and  _68
REMARK   29  A    between atoms: _67  and  _70
REMARK   30  A    between atoms: _70  and  _71
REMARK   31  A    between atoms: _74  and  _76
REMARK   32  A    between atoms: _76  and  _77
REMARK   33  A    between atoms: _76  and  _79
REMARK   34  A    between atoms: _79  and  _80
REMARK   35  A    between atoms: _85  and  _87
REMARK   36  A    between atoms: _87  and  _88
REMARK   37  A    between atoms: _87  and  _90
REMARK   38  A    between atoms: _90  and  _91
REMARK   39  A    between atoms: _94  and  _96
REMARK   40  A    between atoms: _96  and  _97
REMARK   41  A    between atoms: _96  and  _99
REMARK   42  A    between atoms: _102  and  _104
REMARK   43  A    between atoms: _104  and  _105
REMARK   44  A    between atoms: _104  and  _107
REMARK   45  A    between atoms: _107  and  _108
REMARK   46  A    between atoms: _108  and  _109
REMARK   47  A    between atoms: _109  and  _110
REMARK   48  A    between atoms: _110  and  _111
REMARK   49  A    between atoms: _115  and  _117
REMARK   50  A    between atoms: _117  and  _118
REMARK   51  A    between atoms: _117  and  _120
REMARK   52  A    between atoms: _120  and  _121
REMARK   53  A    between atoms: _121  and  _122
REMARK   54  A    between atoms: _124  and  _126
REMARK   55  A    between atoms: _126  and  _127
REMARK   56  A    between atoms: _126  and  _129
REMARK   57  A    between atoms: _129  and  _130
REMARK   58  A    between atoms: _133  and  _135
REMARK   59  A    between atoms: _135  and  _136
REMARK   60  A    between atoms: _138  and  _140
REMARK   61  A    between atoms: _140  and  _141
REMARK   62  A    between atoms: _143  and  _145
REMARK   63  A    between atoms: _145  and  _146
REMARK   64  A    between atoms: _145  and  _148
REMARK   65  A    between atoms: _148  and  _149
REMARK   66  A    between atoms: _152  and  _154
REMARK   67  A    between atoms: _154  and  _155
REMARK   68  A    between atoms: _157  and  _159
REMARK   69  A    between atoms: _159  and  _160
REMARK   70  A    between atoms: _162  and  _164
REMARK   71  A    between atoms: _164  and  _165
REMARK   72  A    between atoms: _164  and  _167
REMARK   73  A    between atoms: _167  and  _168
REMARK   74  A    between atoms: _174  and  _176
REMARK   75  A    between atoms: _176  and  _177
REMARK   76  A    between atoms: _176  and  _179
REMARK   77  A    between atoms: _179  and  _180
REMARK   78  A    between atoms: _183  and  _185
REMARK   79  A    between atoms: _185  and  _186
REMARK   80  A    between atoms: _185  and  _188
REMARK   81  A    between atoms: _191  and  _193
REMARK   82  A    between atoms: _193  and  _194
REMARK   83  A    between atoms: _193  and  _196
REMARK   84  A    between atoms: _196  and  _197
REMARK   85  A    between atoms: _200  and  _202
REMARK   86  A    between atoms: _202  and  _203
REMARK   87  A    between atoms: _202  and  _205
REMARK   88  A    between atoms: _205  and  _206
REMARK   89  A    between atoms: _210  and  _211
REMARK   90  A    between atoms: _216  and  _218
REMARK   91  A    between atoms: _218  and  _219
REMARK   92  A    between atoms: _218  and  _221
REMARK   93  A    between atoms: _224  and  _226
REMARK   94  A    between atoms: _226  and  _227
REMARK   95  A    between atoms: _226  and  _229
REMARK   96  A    between atoms: _229  and  _230
REMARK   97  A    between atoms: _235  and  _237
REMARK   98  A    between atoms: _237  and  _238
REMARK   99  A    between atoms: _237  and  _240
REMARK  100  A    between atoms: _240  and  _241
REMARK  101  A    between atoms: _244  and  _246
REMARK  102  A    between atoms: _246  and  _247
REMARK  103  A    between atoms: _246  and  _249
REMARK  104  A    between atoms: _249  and  _250
REMARK  105  A    between atoms: _253  and  _255
REMARK  106  A    between atoms: _255  and  _256
REMARK  107  A    between atoms: _258  and  _260
REMARK  108  A    between atoms: _260  and  _261
REMARK  109  A    between atoms: _260  and  _263
REMARK  110  A    between atoms: _263  and  _264
REMARK  111  A    between atoms: _264  and  _265
REMARK  112  A    between atoms: _265  and  _266
REMARK  113  A    between atoms: _275  and  _277
REMARK  114  A    between atoms: _277  and  _278
REMARK  115  A    between atoms: _277  and  _280
REMARK  116  A    between atoms: _280  and  _281
REMARK  117  A    between atoms: _286  and  _288
REMARK  118  A    between atoms: _288  and  _289
REMARK  119  A    between atoms: _288  and  _291
REMARK  120  A    between atoms: _291  and  _292
REMARK  121  A    between atoms: _292  and  _293
REMARK  122  A    between atoms: _293  and  _294
REMARK  123  A    between atoms: _303  and  _305
REMARK  124  A    between atoms: _305  and  _306
REMARK  125  A    between atoms: _305  and  _308
REMARK  126  A    between atoms: _308  and  _309
REMARK  127  A    between atoms: _312  and  _314
REMARK  128  A    between atoms: _314  and  _315
REMARK  129  A    between atoms: _314  and  _317
REMARK  130  A    between atoms: _317  and  _318
REMARK  131  A    between atoms: _321  and  _323
REMARK  132  A    between atoms: _323  and  _324
REMARK  133  A    between atoms: _323  and  _326
REMARK  134  A    between atoms: _326  and  _327
REMARK  135  A    between atoms: _330  and  _332
REMARK  136  A    between atoms: _332  and  _333
REMARK  137  A    between atoms: _332  and  _335
REMARK  138  A    between atoms: _335  and  _336
REMARK  139  A    between atoms: _339  and  _341
REMARK  140  A    between atoms: _341  and  _342
REMARK  141  A    between atoms: _344  and  _346
REMARK  142  A    between atoms: _346  and  _347
REMARK  143  A    between atoms: _350  and  _352
REMARK  144  A    between atoms: _352  and  _353
REMARK  145  A    between atoms: _352  and  _355
REMARK  146  A    between atoms: _355  and  _356
REMARK  147  A    between atoms: _359  and  _361
REMARK  148  A    between atoms: _361  and  _362
REMARK  149  A    between atoms: _361  and  _364
REMARK  150  A    between atoms: _364  and  _365
REMARK  151  A    between atoms: _370  and  _372
REMARK  152  A    between atoms: _372  and  _373
REMARK  153  A    between atoms: _372  and  _375
REMARK  154  A    between atoms: _375  and  _376
REMARK  155  A    between atoms: _379  and  _381
REMARK  156  A    between atoms: _381  and  _382
REMARK  157  A    between atoms: _381  and  _384
REMARK  158  A    between atoms: _387  and  _389
REMARK  159  A    between atoms: _389  and  _390
REMARK  160  A    between atoms: _389  and  _392
REMARK  161  A    between atoms: _392  and  _393
REMARK  162  A    between atoms: _393  and  _394
REMARK  163  A    between atoms: _394  and  _395
REMARK  164  A    between atoms: _395  and  _396
REMARK  165  A    between atoms: _400  and  _402
REMARK  166  A    between atoms: _402  and  _403
REMARK  167  A    between atoms: _402  and  _405
REMARK  168  A    between atoms: _405  and  _406
REMARK  169  A    between atoms: _406  and  _407
REMARK  170  A    between atoms: _409  and  _411
REMARK  171  A    between atoms: _411  and  _412
REMARK  172  A    between atoms: _411  and  _414
REMARK  173  A    between atoms: _414  and  _415
REMARK  174  A    between atoms: _418  and  _420
REMARK  175  A    between atoms: _420  and  _421
REMARK  176  A    between atoms: _423  and  _425
REMARK  177  A    between atoms: _425  and  _426
REMARK  178  A    between atoms: _428  and  _430
REMARK  179  A    between atoms: _430  and  _431
REMARK  180  A    between atoms: _430  and  _433
REMARK  181  A    between atoms: _433  and  _434
REMARK  182  A    between atoms: _437  and  _439
REMARK  183  A    between atoms: _439  and  _440
REMARK  184  A    between atoms: _442  and  _444
REMARK  185  A    between atoms: _444  and  _445
REMARK  186  A    between atoms: _447  and  _449
REMARK  187  A    between atoms: _449  and  _450
REMARK  188  A    between atoms: _449  and  _452
REMARK  189  A    between atoms: _452  and  _453
REMARK  190  A    between atoms: _459  and  _461
REMARK  191  A    between atoms: _461  and  _462
REMARK  192  A    between atoms: _461  and  _464
REMARK  193  A    between atoms: _464  and  _465
REMARK  194  A    between atoms: _468  and  _470
REMARK  195  A    between atoms: _470  and  _471
REMARK  196  A    between atoms: _470  and  _473
REMARK  197  A    between atoms: _473  and  _474
REMARK  198  A    between atoms: _477  and  _479
REMARK  199  A    between atoms: _479  and  _480
REMARK  200  A    between atoms: _479  and  _482
REMARK  201  A    between atoms: _482  and  _483
REMARK  202  A    between atoms: _487  and  _488
REMARK  203  A    between atoms: _493  and  _495
REMARK  204  A    between atoms: _495  and  _496
REMARK  205  A    between atoms: _495  and  _498
REMARK  206  A    between atoms: _501  and  _503
REMARK  207  A    between atoms: _503  and  _504
REMARK  208  A    between atoms: _503  and  _506
REMARK  209  A    between atoms: _506  and  _507
REMARK  210  A    between atoms: _512  and  _514
REMARK  211  A    between atoms: _514  and  _515
REMARK  212  A    between atoms: _514  and  _517
REMARK  213  A    between atoms: _517  and  _518
REMARK  214  A    between atoms: _521  and  _523
REMARK  215  A    between atoms: _523  and  _524
REMARK  216  A    between atoms: _523  and  _526
REMARK  217  A    between atoms: _526  and  _527
REMARK  218  A    between atoms: _530  and  _532
REMARK  219  A    between atoms: _532  and  _533
REMARK  220  A    between atoms: _535  and  _537
REMARK  221  A    between atoms: _537  and  _538
REMARK  222  A    between atoms: _537  and  _540
REMARK  223  A    between atoms: _540  and  _541
REMARK  224  A    between atoms: _541  and  _542
REMARK  225  A    between atoms: _542  and  _543
REMARK  226  A    between atoms: _552  and  _554
REMARK  227  A    between atoms: _554  and  _555
REMARK  228  A    between atoms: _554  and  _557
REMARK  229  A    between atoms: _557  and  _558
REMARK                            x       y       z     vdW  Elec       q    Type
REMARK                         _______ _______ _______ _____ _____    ______ ____
ROOT
ATOM      1  O   HOH     1       6.645  15.593  25.236  0.00  0.00    +0.000 OA
ENDROOT
TORSDOF 0
REMARK  Name = ../refined-set-2016/2qci/2qci_pocket.pdb
REMARK  229 active torsions:
REMARK  status: ('A' for Active; 'I' for Inactive)
REMARK    1  A    between atoms: _1  and  _3
REMARK    2  A    between atoms: _3  and  _4
REMARK    3  A    between atoms: _3  and  _6
REMARK    4  A    between atoms: _6  and  _7
REMARK    5  A    between atoms: _7  and  _8
REMARK    6  A    between atoms: _8  and  _9
REMARK    7  A    between atoms: _18  and  _20
REMARK    8  A    between atoms: _20  and  _21
REMARK    9  A    between atoms: _20  and  _23
REMARK   10  A    between atoms: _23  and  _24
REMARK   11  A    between atoms: _27  and  _29
REMARK   12  A    between atoms: _29  and  _30
REMARK   13  A    between atoms: _29  and  _32
REMARK   14  A    between atoms: _32  and  _33
REMARK   15  A    between atoms: _36  and  _38
REMARK   16  A    between atoms: _38  and  _39
REMARK   17  A    between atoms: _38  and  _41
REMARK   18  A    between atoms: _41  and  _42
REMARK   19  A    between atoms: _45  and  _47
REMARK   20  A    between atoms: _47  and  _48
REMARK   21  A    between atoms: _47  and  _50
REMARK   22  A    between atoms: _50  and  _51
REMARK   23  A    between atoms: _54  and  _56
REMARK   24  A    between atoms: _56  and  _57
REMARK   25  A    between atoms: _59  and  _61
REMARK   26  A    between atoms: _61  and  _62
REMARK   27  A    between atoms: _65  and  _67
REMARK   28  A    between atoms: _67  and  _68
REMARK   29  A    between atoms: _67  and  _70
REMARK   30  A    between atoms: _70  and  _71
REMARK   31  A    between atoms: _74  and  _76
REMARK   32  A    between atoms: _76  and  _77
REMARK   33  A    between atoms: _76  and  _79
REMARK   34  A    between atoms: _79  and  _80
REMARK   35  A    between atoms: _85  and  _87
REMARK   36  A    between atoms: _87  and  _88
REMARK   37  A    between atoms: _87  and  _90
REMARK   38  A    between atoms: _90  and  _91
REMARK   39  A    between atoms: _94  and  _96
REMARK   40  A    between atoms: _96  and  _97
REMARK   41  A    between atoms: _96  and  _99
REMARK   42  A    between atoms: _102  and  _104
REMARK   43  A    between atoms: _104  and  _105
REMARK   44  A    between atoms: _104  and  _107
REMARK   45  A    between atoms: _107  and  _108
REMARK   46  A    between atoms: _108  and  _109
REMARK   47  A    between atoms: _109  and  _110
REMARK   48  A    between atoms: _110  and  _111
REMARK   49  A    between atoms: _115  and  _117
REMARK   50  A    between atoms: _117  and  _118
REMARK   51  A    between atoms: _117  and  _120
REMARK   52  A    between atoms: _120  and  _121
REMARK   53  A    between atoms: _121  and  _122
REMARK   54  A    between atoms: _124  and  _126
REMARK   55  A    between atoms: _126  and  _127
REMARK   56  A    between atoms: _126  and  _129
REMARK   57  A    between atoms: _129  and  _130
REMARK   58  A    between atoms: _133  and  _135
REMARK   59  A    between atoms: _135  and  _136
REMARK   60  A    between atoms: _138  and  _140
REMARK   61  A    between atoms: _140  and  _141
REMARK   62  A    between atoms: _143  and  _145
REMARK   63  A    between atoms: _145  and  _146
REMARK   64  A    between atoms: _145  and  _148
REMARK   65  A    between atoms: _148  and  _149
REMARK   66  A    between atoms: _152  and  _154
REMARK   67  A    between atoms: _154  and  _155
REMARK   68  A    between atoms: _157  and  _159
REMARK   69  A    between atoms: _159  and  _160
REMARK   70  A    between atoms: _162  and  _164
REMARK   71  A    between atoms: _164  and  _165
REMARK   72  A    between atoms: _164  and  _167
REMARK   73  A    between atoms: _167  and  _168
REMARK   74  A    between atoms: _174  and  _176
REMARK   75  A    between atoms: _176  and  _177
REMARK   76  A    between atoms: _176  and  _179
REMARK   77  A    between atoms: _179  and  _180
REMARK   78  A    between atoms: _183  and  _185
REMARK   79  A    between atoms: _185  and  _186
REMARK   80  A    between atoms: _185  and  _188
REMARK   81  A    between atoms: _191  and  _193
REMARK   82  A    between atoms: _193  and  _194
REMARK   83  A    between atoms: _193  and  _196
REMARK   84  A    between atoms: _196  and  _197
REMARK   85  A    between atoms: _200  and  _202
REMARK   86  A    between atoms: _202  and  _203
REMARK   87  A    between atoms: _202  and  _205
REMARK   88  A    between atoms: _205  and  _206
REMARK   89  A    between atoms: _210  and  _211
REMARK   90  A    between atoms: _216  and  _218
REMARK   91  A    between atoms: _218  and  _219
REMARK   92  A    between atoms: _218  and  _221
REMARK   93  A    between atoms: _224  and  _226
REMARK   94  A    between atoms: _226  and  _227
REMARK   95  A    between atoms: _226  and  _229
REMARK   96  A    between atoms: _229  and  _230
REMARK   97  A    between atoms: _235  and  _237
REMARK   98  A    between atoms: _237  and  _238
REMARK   99  A    between atoms: _237  and  _240
REMARK  100  A    between atoms: _240  and  _241
REMARK  101  A    between atoms: _244  and  _246
REMARK  102  A    between atoms: _246  and  _247
REMARK  103  A    between atoms: _246  and  _249
REMARK  104  A    between atoms: _249  and  _250
REMARK  105  A    between atoms: _253  and  _255
REMARK  106  A    between atoms: _255  and  _256
REMARK  107  A    between atoms: _258  and  _260
REMARK  108  A    between atoms: _260  and  _261
REMARK  109  A    between atoms: _260  and  _263
REMARK  110  A    between atoms: _263  and  _264
REMARK  111  A    between atoms: _264  and  _265
REMARK  112  A    between atoms: _265  and  _266
REMARK  113  A    between atoms: _275  and  _277
REMARK  114  A    between atoms: _277  and  _278
REMARK  115  A    between atoms: _277  and  _280
REMARK  116  A    between atoms: _280  and  _281
REMARK  117  A    between atoms: _286  and  _288
REMARK  118  A    between atoms: _288  and  _289
REMARK  119  A    between atoms: _288  and  _291
REMARK  120  A    between atoms: _291  and  _292
REMARK  121  A    between atoms: _292  and  _293
REMARK  122  A    between atoms: _293  and  _294
REMARK  123  A    between atoms: _303  and  _305
REMARK  124  A    between atoms: _305  and  _306
REMARK  125  A    between atoms: _305  and  _308
REMARK  126  A    between atoms: _308  and  _309
REMARK  127  A    between atoms: _312  and  _314
REMARK  128  A    between atoms: _314  and  _315
REMARK  129  A    between atoms: _314  and  _317
REMARK  130  A    between atoms: _317  and  _318
REMARK  131  A    between atoms: _321  and  _323
REMARK  132  A    between atoms: _323  and  _324
REMARK  133  A    between atoms: _323  and  _326
REMARK  134  A    between atoms: _326  and  _327
REMARK  135  A    between atoms: _330  and  _332
REMARK  136  A    between atoms: _332  and  _333
REMARK  137  A    between atoms: _332  and  _335
REMARK  138  A    between atoms: _335  and  _336
REMARK  139  A    between atoms: _339  and  _341
REMARK  140  A    between atoms: _341  and  _342
REMARK  141  A    between atoms: _344  and  _346
REMARK  142  A    between atoms: _346  and  _347
REMARK  143  A    between atoms: _350  and  _352
REMARK  144  A    between atoms: _352  and  _353
REMARK  145  A    between atoms: _352  and  _355
REMARK  146  A    between atoms: _355  and  _356
REMARK  147  A    between atoms: _359  and  _361
REMARK  148  A    between atoms: _361  and  _362
REMARK  149  A    between atoms: _361  and  _364
REMARK  150  A    between atoms: _364  and  _365
REMARK  151  A    between atoms: _370  and  _372
REMARK  152  A    between atoms: _372  and  _373
REMARK  153  A    between atoms: _372  and  _375
REMARK  154  A    between atoms: _375  and  _376
REMARK  155  A    between atoms: _379  and  _381
REMARK  156  A    between atoms: _381  and  _382
REMARK  157  A    between atoms: _381  and  _384
REMARK  158  A    between atoms: _387  and  _389
REMARK  159  A    between atoms: _389  and  _390
REMARK  160  A    between atoms: _389  and  _392
REMARK  161  A    between atoms: _392  and  _393
REMARK  162  A    between atoms: _393  and  _394
REMARK  163  A    between atoms: _394  and  _395
REMARK  164  A    between atoms: _395  and  _396
REMARK  165  A    between atoms: _400  and  _402
REMARK  166  A    between atoms: _402  and  _403
REMARK  167  A    between atoms: _402  and  _405
REMARK  168  A    between atoms: _405  and  _406
REMARK  169  A    between atoms: _406  and  _407
REMARK  170  A    between atoms: _409  and  _411
REMARK  171  A    between atoms: _411  and  _412
REMARK  172  A    between atoms: _411  and  _414
REMARK  173  A    between atoms: _414  and  _415
REMARK  174  A    between atoms: _418  and  _420
REMARK  175  A    between atoms: _420  and  _421
REMARK  176  A    between atoms: _423  and  _425
REMARK  177  A    between atoms: _425  and  _426
REMARK  178  A    between atoms: _428  and  _430
REMARK  179  A    between atoms: _430  and  _431
REMARK  180  A    between atoms: _430  and  _433
REMARK  181  A    between atoms: _433  and  _434
REMARK  182  A    between atoms: _437  and  _439
REMARK  183  A    between atoms: _439  and  _440
REMARK  184  A    between atoms: _442  and  _444
REMARK  185  A    between atoms: _444  and  _445
REMARK  186  A    between atoms: _447  and  _449
REMARK  187  A    between atoms: _449  and  _450
REMARK  188  A    between atoms: _449  and  _452
REMARK  189  A    between atoms: _452  and  _453
REMARK  190  A    between atoms: _459  and  _461
REMARK  191  A    between atoms: _461  and  _462
REMARK  192  A    between atoms: _461  and  _464
REMARK  193  A    between atoms: _464  and  _465
REMARK  194  A    between atoms: _468  and  _470
REMARK  195  A    between atoms: _470  and  _471
REMARK  196  A    between atoms: _470  and  _473
REMARK  197  A    between atoms: _473  and  _474
REMARK  198  A    between atoms: _477  and  _479
REMARK  199  A    between atoms: _479  and  _480
REMARK  200  A    between atoms: _479  and  _482
REMARK  201  A    between atoms: _482  and  _483
REMARK  202  A    between atoms: _487  and  _488
REMARK  203  A    between atoms: _493  and  _495
REMARK  204  A    between atoms: _495  and  _496
REMARK  205  A    between atoms: _495  and  _498
REMARK  206  A    between atoms: _501  and  _503
REMARK  207  A    between atoms: _503  and  _504
REMARK  208  A    between atoms: _503  and  _506
REMARK  209  A    between atoms: _506  and  _507
REMARK  210  A    between atoms: _512  and  _514
REMARK  211  A    between atoms: _514  and  _515
REMARK  212  A    between atoms: _514  and  _517
REMARK  213  A    between atoms: _517  and  _518
REMARK  214  A    between atoms: _521  and  _523
REMARK  215  A    between atoms: _523  and  _524
REMARK  216  A    between atoms: _523  and  _526
REMARK  217  A    between atoms: _526  and  _527
REMARK  218  A    between atoms: _530  and  _532
REMARK  219  A    between atoms: _532  and  _533
REMARK  220  A    between atoms: _535  and  _537
REMARK  221  A    between atoms: _537  and  _538
REMARK  222  A    between atoms: _537  and  _540
REMARK  223  A    between atoms: _540  and  _541
REMARK  224  A    between atoms: _541  and  _542
REMARK  225  A    between atoms: _542  and  _543
REMARK  226  A    between atoms: _552  and  _554
REMARK  227  A    between atoms: _554  and  _555
REMARK  228  A    between atoms: _554  and  _557
REMARK  229  A    between atoms: _557  and  _558
REMARK                            x       y       z     vdW  Elec       q    Type
REMARK                         _______ _______ _______ _____ _____    ______ ____
ROOT
ATOM      1  O   HOH     1      22.052  27.412  22.926  0.00  0.00    +0.000 OA
ENDROOT
TORSDOF 0
REMARK  Name = ../refined-set-2016/2qci/2qci_pocket.pdb
REMARK  229 active torsions:
REMARK  status: ('A' for Active; 'I' for Inactive)
REMARK    1  A    between atoms: _1  and  _3
REMARK    2  A    between atoms: _3  and  _4
REMARK    3  A    between atoms: _3  and  _6
REMARK    4  A    between atoms: _6  and  _7
REMARK    5  A    between atoms: _7  and  _8
REMARK    6  A    between atoms: _8  and  _9
REMARK    7  A    between atoms: _18  and  _20
REMARK    8  A    between atoms: _20  and  _21
REMARK    9  A    between atoms: _20  and  _23
REMARK   10  A    between atoms: _23  and  _24
REMARK   11  A    between atoms: _27  and  _29
REMARK   12  A    between atoms: _29  and  _30
REMARK   13  A    between atoms: _29  and  _32
REMARK   14  A    between atoms: _32  and  _33
REMARK   15  A    between atoms: _36  and  _38
REMARK   16  A    between atoms: _38  and  _39
REMARK   17  A    between atoms: _38  and  _41
REMARK   18  A    between atoms: _41  and  _42
REMARK   19  A    between atoms: _45  and  _47
REMARK   20  A    between atoms: _47  and  _48
REMARK   21  A    between atoms: _47  and  _50
REMARK   22  A    between atoms: _50  and  _51
REMARK   23  A    between atoms: _54  and  _56
REMARK   24  A    between atoms: _56  and  _57
REMARK   25  A    between atoms: _59  and  _61
REMARK   26  A    between atoms: _61  and  _62
REMARK   27  A    between atoms: _65  and  _67
REMARK   28  A    between atoms: _67  and  _68
REMARK   29  A    between atoms: _67  and  _70
REMARK   30  A    between atoms: _70  and  _71
REMARK   31  A    between atoms: _74  and  _76
REMARK   32  A    between atoms: _76  and  _77
REMARK   33  A    between atoms: _76  and  _79
REMARK   34  A    between atoms: _79  and  _80
REMARK   35  A    between atoms: _85  and  _87
REMARK   36  A    between atoms: _87  and  _88
REMARK   37  A    between atoms: _87  and  _90
REMARK   38  A    between atoms: _90  and  _91
REMARK   39  A    between atoms: _94  and  _96
REMARK   40  A    between atoms: _96  and  _97
REMARK   41  A    between atoms: _96  and  _99
REMARK   42  A    between atoms: _102  and  _104
REMARK   43  A    between atoms: _104  and  _105
REMARK   44  A    between atoms: _104  and  _107
REMARK   45  A    between atoms: _107  and  _108
REMARK   46  A    between atoms: _108  and  _109
REMARK   47  A    between atoms: _109  and  _110
REMARK   48  A    between atoms: _110  and  _111
REMARK   49  A    between atoms: _115  and  _117
REMARK   50  A    between atoms: _117  and  _118
REMARK   51  A    between atoms: _117  and  _120
REMARK   52  A    between atoms: _120  and  _121
REMARK   53  A    between atoms: _121  and  _122
REMARK   54  A    between atoms: _124  and  _126
REMARK   55  A    between atoms: _126  and  _127
REMARK   56  A    between atoms: _126  and  _129
REMARK   57  A    between atoms: _129  and  _130
REMARK   58  A    between atoms: _133  and  _135
REMARK   59  A    between atoms: _135  and  _136
REMARK   60  A    between atoms: _138  and  _140
REMARK   61  A    between atoms: _140  and  _141
REMARK   62  A    between atoms: _143  and  _145
REMARK   63  A    between atoms: _145  and  _146
REMARK   64  A    between atoms: _145  and  _148
REMARK   65  A    between atoms: _148  and  _149
REMARK   66  A    between atoms: _152  and  _154
REMARK   67  A    between atoms: _154  and  _155
REMARK   68  A    between atoms: _157  and  _159
REMARK   69  A    between atoms: _159  and  _160
REMARK   70  A    between atoms: _162  and  _164
REMARK   71  A    between atoms: _164  and  _165
REMARK   72  A    between atoms: _164  and  _167
REMARK   73  A    between atoms: _167  and  _168
REMARK   74  A    between atoms: _174  and  _176
REMARK   75  A    between atoms: _176  and  _177
REMARK   76  A    between atoms: _176  and  _179
REMARK   77  A    between atoms: _179  and  _180
REMARK   78  A    between atoms: _183  and  _185
REMARK   79  A    between atoms: _185  and  _186
REMARK   80  A    between atoms: _185  and  _188
REMARK   81  A    between atoms: _191  and  _193
REMARK   82  A    between atoms: _193  and  _194
REMARK   83  A    between atoms: _193  and  _196
REMARK   84  A    between atoms: _196  and  _197
REMARK   85  A    between atoms: _200  and  _202
REMARK   86  A    between atoms: _202  and  _203
REMARK   87  A    between atoms: _202  and  _205
REMARK   88  A    between atoms: _205  and  _206
REMARK   89  A    between atoms: _210  and  _211
REMARK   90  A    between atoms: _216  and  _218
REMARK   91  A    between atoms: _218  and  _219
REMARK   92  A    between atoms: _218  and  _221
REMARK   93  A    between atoms: _224  and  _226
REMARK   94  A    between atoms: _226  and  _227
REMARK   95  A    between atoms: _226  and  _229
REMARK   96  A    between atoms: _229  and  _230
REMARK   97  A    between atoms: _235  and  _237
REMARK   98  A    between atoms: _237  and  _238
REMARK   99  A    between atoms: _237  and  _240
REMARK  100  A    between atoms: _240  and  _241
REMARK  101  A    between atoms: _244  and  _246
REMARK  102  A    between atoms: _246  and  _247
REMARK  103  A    between atoms: _246  and  _249
REMARK  104  A    between atoms: _249  and  _250
REMARK  105  A    between atoms: _253  and  _255
REMARK  106  A    between atoms: _255  and  _256
REMARK  107  A    between atoms: _258  and  _260
REMARK  108  A    between atoms: _260  and  _261
REMARK  109  A    between atoms: _260  and  _263
REMARK  110  A    between atoms: _263  and  _264
REMARK  111  A    between atoms: _264  and  _265
REMARK  112  A    between atoms: _265  and  _266
REMARK  113  A    between atoms: _275  and  _277
REMARK  114  A    between atoms: _277  and  _278
REMARK  115  A    between atoms: _277  and  _280
REMARK  116  A    between atoms: _280  and  _281
REMARK  117  A    between atoms: _286  and  _288
REMARK  118  A    between atoms: _288  and  _289
REMARK  119  A    between atoms: _288  and  _291
REMARK  120  A    between atoms: _291  and  _292
REMARK  121  A    between atoms: _292  and  _293
REMARK  122  A    between atoms: _293  and  _294
REMARK  123  A    between atoms: _303  and  _305
REMARK  124  A    between atoms: _305  and  _306
REMARK  125  A    between atoms: _305  and  _308
REMARK  126  A    between atoms: _308  and  _309
REMARK  127  A    between atoms: _312  and  _314
REMARK  128  A    between atoms: _314  and  _315
REMARK  129  A    between atoms: _314  and  _317
REMARK  130  A    between atoms: _317  and  _318
REMARK  131  A    between atoms: _321  and  _323
REMARK  132  A    between atoms: _323  and  _324
REMARK  133  A    between atoms: _323  and  _326
REMARK  134  A    between atoms: _326  and  _327
REMARK  135  A    between atoms: _330  and  _332
REMARK  136  A    between atoms: _332  and  _333
REMARK  137  A    between atoms: _332  and  _335
REMARK  138  A    between atoms: _335  and  _336
REMARK  139  A    between atoms: _339  and  _341
REMARK  140  A    between atoms: _341  and  _342
REMARK  141  A    between atoms: _344  and  _346
REMARK  142  A    between atoms: _346  and  _347
REMARK  143  A    between atoms: _350  and  _352
REMARK  144  A    between atoms: _352  and  _353
REMARK  145  A    between atoms: _352  and  _355
REMARK  146  A    between atoms: _355  and  _356
REMARK  147  A    between atoms: _359  and  _361
REMARK  148  A    between atoms: _361  and  _362
REMARK  149  A    between atoms: _361  and  _364
REMARK  150  A    between atoms: _364  and  _365
REMARK  151  A    between atoms: _370  and  _372
REMARK  152  A    between atoms: _372  and  _373
REMARK  153  A    between atoms: _372  and  _375
REMARK  154  A    between atoms: _375  and  _376
REMARK  155  A    between atoms: _379  and  _381
REMARK  156  A    between atoms: _381  and  _382
REMARK  157  A    between atoms: _381  and  _384
REMARK  158  A    between atoms: _387  and  _389
REMARK  159  A    between atoms: _389  and  _390
REMARK  160  A    between atoms: _389  and  _392
REMARK  161  A    between atoms: _392  and  _393
REMARK  162  A    between atoms: _393  and  _394
REMARK  163  A    between atoms: _394  and  _395
REMARK  164  A    between atoms: _395  and  _396
REMARK  165  A    between atoms: _400  and  _402
REMARK  166  A    between atoms: _402  and  _403
REMARK  167  A    between atoms: _402  and  _405
REMARK  168  A    between atoms: _405  and  _406
REMARK  169  A    between atoms: _406  and  _407
REMARK  170  A    between atoms: _409  and  _411
REMARK  171  A    between atoms: _411  and  _412
REMARK  172  A    between atoms: _411  and  _414
REMARK  173  A    between atoms: _414  and  _415
REMARK  174  A    between atoms: _418  and  _420
REMARK  175  A    between atoms: _420  and  _421
REMARK  176  A    between atoms: _423  and  _425
REMARK  177  A    between atoms: _425  and  _426
REMARK  178  A    between atoms: _428  and  _430
REMARK  179  A    between atoms: _430  and  _431
REMARK  180  A    between atoms: _430  and  _433
REMARK  181  A    between atoms: _433  and  _434
REMARK  182  A    between atoms: _437  and  _439
REMARK  183  A    between atoms: _439  and  _440
REMARK  184  A    between atoms: _442  and  _444
REMARK  185  A    between atoms: _444  and  _445
REMARK  186  A    between atoms: _447  and  _449
REMARK  187  A    between atoms: _449  and  _450
REMARK  188  A    between atoms: _449  and  _452
REMARK  189  A    between atoms: _452  and  _453
REMARK  190  A    between atoms: _459  and  _461
REMARK  191  A    between atoms: _461  and  _462
REMARK  192  A    between atoms: _461  and  _464
REMARK  193  A    between atoms: _464  and  _465
REMARK  194  A    between atoms: _468  and  _470
REMARK  195  A    between atoms: _470  and  _471
REMARK  196  A    between atoms: _470  and  _473
REMARK  197  A    between atoms: _473  and  _474
REMARK  198  A    between atoms: _477  and  _479
REMARK  199  A    between atoms: _479  and  _480
REMARK  200  A    between atoms: _479  and  _482
REMARK  201  A    between atoms: _482  and  _483
REMARK  202  A    between atoms: _487  and  _488
REMARK  203  A    between atoms: _493  and  _495
REMARK  204  A    between atoms: _495  and  _496
REMARK  205  A    between atoms: _495  and  _498
REMARK  206  A    between atoms: _501  and  _503
REMARK  207  A    between atoms: _503  and  _504
REMARK  208  A    between atoms: _503  and  _506
REMARK  209  A    between atoms: _506  and  _507
REMARK  210  A    between atoms: _512  and  _514
REMARK  211  A    between atoms: _514  and  _515
REMARK  212  A    between atoms: _514  and  _517
REMARK  213  A    between atoms: _517  and  _518
REMARK  214  A    between atoms: _521  and  _523
REMARK  215  A    between atoms: _523  and  _524
REMARK  216  A    between atoms: _523  and  _526
REMARK  217  A    between atoms: _526  and  _527
REMARK  218  A    between atoms: _530  and  _532
REMARK  219  A    between atoms: _532  and  _533
REMARK  220  A    between atoms: _535  and  _537
REMARK  221  A    between atoms: _537  and  _538
REMARK  222  A    between atoms: _537  and  _540
REMARK  223  A    between atoms: _540  and  _541
REMARK  224  A    between atoms: _541  and  _542
REMARK  225  A    between atoms: _542  and  _543
REMARK  226  A    between atoms: _552  and  _554
REMARK  227  A    between atoms: _554  and  _555
REMARK  228  A    between atoms: _554  and  _557
REMARK  229  A    between atoms: _557  and  _558
REMARK                            x       y       z     vdW  Elec       q    Type
REMARK                         _______ _______ _______ _____ _____    ______ ____
ROOT
ATOM      1  O   HOH     1       6.107  14.263  20.788  0.00  0.00    +0.000 OA
ENDROOT
TORSDOF 0
REMARK  Name = ../refined-set-2016/2qci/2qci_pocket.pdb
REMARK  229 active torsions:
REMARK  status: ('A' for Active; 'I' for Inactive)
REMARK    1  A    between atoms: _1  and  _3
REMARK    2  A    between atoms: _3  and  _4
REMARK    3  A    between atoms: _3  and  _6
REMARK    4  A    between atoms: _6  and  _7
REMARK    5  A    between atoms: _7  and  _8
REMARK    6  A    between atoms: _8  and  _9
REMARK    7  A    between atoms: _18  and  _20
REMARK    8  A    between atoms: _20  and  _21
REMARK    9  A    between atoms: _20  and  _23
REMARK   10  A    between atoms: _23  and  _24
REMARK   11  A    between atoms: _27  and  _29
REMARK   12  A    between atoms: _29  and  _30
REMARK   13  A    between atoms: _29  and  _32
REMARK   14  A    between atoms: _32  and  _33
REMARK   15  A    between atoms: _36  and  _38
REMARK   16  A    between atoms: _38  and  _39
REMARK   17  A    between atoms: _38  and  _41
REMARK   18  A    between atoms: _41  and  _42
REMARK   19  A    between atoms: _45  and  _47
REMARK   20  A    between atoms: _47  and  _48
REMARK   21  A    between atoms: _47  and  _50
REMARK   22  A    between atoms: _50  and  _51
REMARK   23  A    between atoms: _54  and  _56
REMARK   24  A    between atoms: _56  and  _57
REMARK   25  A    between atoms: _59  and  _61
REMARK   26  A    between atoms: _61  and  _62
REMARK   27  A    between atoms: _65  and  _67
REMARK   28  A    between atoms: _67  and  _68
REMARK   29  A    between atoms: _67  and  _70
REMARK   30  A    between atoms: _70  and  _71
REMARK   31  A    between atoms: _74  and  _76
REMARK   32  A    between atoms: _76  and  _77
REMARK   33  A    between atoms: _76  and  _79
REMARK   34  A    between atoms: _79  and  _80
REMARK   35  A    between atoms: _85  and  _87
REMARK   36  A    between atoms: _87  and  _88
REMARK   37  A    between atoms: _87  and  _90
REMARK   38  A    between atoms: _90  and  _91
REMARK   39  A    between atoms: _94  and  _96
REMARK   40  A    between atoms: _96  and  _97
REMARK   41  A    between atoms: _96  and  _99
REMARK   42  A    between atoms: _102  and  _104
REMARK   43  A    between atoms: _104  and  _105
REMARK   44  A    between atoms: _104  and  _107
REMARK   45  A    between atoms: _107  and  _108
REMARK   46  A    between atoms: _108  and  _109
REMARK   47  A    between atoms: _109  and  _110
REMARK   48  A    between atoms: _110  and  _111
REMARK   49  A    between atoms: _115  and  _117
REMARK   50  A    between atoms: _117  and  _118
REMARK   51  A    between atoms: _117  and  _120
REMARK   52  A    between atoms: _120  and  _121
REMARK   53  A    between atoms: _121  and  _122
REMARK   54  A    between atoms: _124  and  _126
REMARK   55  A    between atoms: _126  and  _127
REMARK   56  A    between atoms: _126  and  _129
REMARK   57  A    between atoms: _129  and  _130
REMARK   58  A    between atoms: _133  and  _135
REMARK   59  A    between atoms: _135  and  _136
REMARK   60  A    between atoms: _138  and  _140
REMARK   61  A    between atoms: _140  and  _141
REMARK   62  A    between atoms: _143  and  _145
REMARK   63  A    between atoms: _145  and  _146
REMARK   64  A    between atoms: _145  and  _148
REMARK   65  A    between atoms: _148  and  _149
REMARK   66  A    between atoms: _152  and  _154
REMARK   67  A    between atoms: _154  and  _155
REMARK   68  A    between atoms: _157  and  _159
REMARK   69  A    between atoms: _159  and  _160
REMARK   70  A    between atoms: _162  and  _164
REMARK   71  A    between atoms: _164  and  _165
REMARK   72  A    between atoms: _164  and  _167
REMARK   73  A    between atoms: _167  and  _168
REMARK   74  A    between atoms: _174  and  _176
REMARK   75  A    between atoms: _176  and  _177
REMARK   76  A    between atoms: _176  and  _179
REMARK   77  A    between atoms: _179  and  _180
REMARK   78  A    between atoms: _183  and  _185
REMARK   79  A    between atoms: _185  and  _186
REMARK   80  A    between atoms: _185  and  _188
REMARK   81  A    between atoms: _191  and  _193
REMARK   82  A    between atoms: _193  and  _194
REMARK   83  A    between atoms: _193  and  _196
REMARK   84  A    between atoms: _196  and  _197
REMARK   85  A    between atoms: _200  and  _202
REMARK   86  A    between atoms: _202  and  _203
REMARK   87  A    between atoms: _202  and  _205
REMARK   88  A    between atoms: _205  and  _206
REMARK   89  A    between atoms: _210  and  _211
REMARK   90  A    between atoms: _216  and  _218
REMARK   91  A    between atoms: _218  and  _219
REMARK   92  A    between atoms: _218  and  _221
REMARK   93  A    between atoms: _224  and  _226
REMARK   94  A    between atoms: _226  and  _227
REMARK   95  A    between atoms: _226  and  _229
REMARK   96  A    between atoms: _229  and  _230
REMARK   97  A    between atoms: _235  and  _237
REMARK   98  A    between atoms: _237  and  _238
REMARK   99  A    between atoms: _237  and  _240
REMARK  100  A    between atoms: _240  and  _241
REMARK  101  A    between atoms: _244  and  _246
REMARK  102  A    between atoms: _246  and  _247
REMARK  103  A    between atoms: _246  and  _249
REMARK  104  A    between atoms: _249  and  _250
REMARK  105  A    between atoms: _253  and  _255
REMARK  106  A    between atoms: _255  and  _256
REMARK  107  A    between atoms: _258  and  _260
REMARK  108  A    between atoms: _260  and  _261
REMARK  109  A    between atoms: _260  and  _263
REMARK  110  A    between atoms: _263  and  _264
REMARK  111  A    between atoms: _264  and  _265
REMARK  112  A    between atoms: _265  and  _266
REMARK  113  A    between atoms: _275  and  _277
REMARK  114  A    between atoms: _277  and  _278
REMARK  115  A    between atoms: _277  and  _280
REMARK  116  A    between atoms: _280  and  _281
REMARK  117  A    between atoms: _286  and  _288
REMARK  118  A    between atoms: _288  and  _289
REMARK  119  A    between atoms: _288  and  _291
REMARK  120  A    between atoms: _291  and  _292
REMARK  121  A    between atoms: _292  and  _293
REMARK  122  A    between atoms: _293  and  _294
REMARK  123  A    between atoms: _303  and  _305
REMARK  124  A    between atoms: _305  and  _306
REMARK  125  A    between atoms: _305  and  _308
REMARK  126  A    between atoms: _308  and  _309
REMARK  127  A    between atoms: _312  and  _314
REMARK  128  A    between atoms: _314  and  _315
REMARK  129  A    between atoms: _314  and  _317
REMARK  130  A    between atoms: _317  and  _318
REMARK  131  A    between atoms: _321  and  _323
REMARK  132  A    between atoms: _323  and  _324
REMARK  133  A    between atoms: _323  and  _326
REMARK  134  A    between atoms: _326  and  _327
REMARK  135  A    between atoms: _330  and  _332
REMARK  136  A    between atoms: _332  and  _333
REMARK  137  A    between atoms: _332  and  _335
REMARK  138  A    between atoms: _335  and  _336
REMARK  139  A    between atoms: _339  and  _341
REMARK  140  A    between atoms: _341  and  _342
REMARK  141  A    between atoms: _344  and  _346
REMARK  142  A    between atoms: _346  and  _347
REMARK  143  A    between atoms: _350  and  _352
REMARK  144  A    between atoms: _352  and  _353
REMARK  145  A    between atoms: _352  and  _355
REMARK  146  A    between atoms: _355  and  _356
REMARK  147  A    between atoms: _359  and  _361
REMARK  148  A    between atoms: _361  and  _362
REMARK  149  A    between atoms: _361  and  _364
REMARK  150  A    between atoms: _364  and  _365
REMARK  151  A    between atoms: _370  and  _372
REMARK  152  A    between atoms: _372  and  _373
REMARK  153  A    between atoms: _372  and  _375
REMARK  154  A    between atoms: _375  and  _376
REMARK  155  A    between atoms: _379  and  _381
REMARK  156  A    between atoms: _381  and  _382
REMARK  157  A    between atoms: _381  and  _384
REMARK  158  A    between atoms: _387  and  _389
REMARK  159  A    between atoms: _389  and  _390
REMARK  160  A    between atoms: _389  and  _392
REMARK  161  A    between atoms: _392  and  _393
REMARK  162  A    between atoms: _393  and  _394
REMARK  163  A    between atoms: _394  and  _395
REMARK  164  A    between atoms: _395  and  _396
REMARK  165  A    between atoms: _400  and  _402
REMARK  166  A    between atoms: _402  and  _403
REMARK  167  A    between atoms: _402  and  _405
REMARK  168  A    between atoms: _405  and  _406
REMARK  169  A    between atoms: _406  and  _407
REMARK  170  A    between atoms: _409  and  _411
REMARK  171  A    between atoms: _411  and  _412
REMARK  172  A    between atoms: _411  and  _414
REMARK  173  A    between atoms: _414  and  _415
REMARK  174  A    between atoms: _418  and  _420
REMARK  175  A    between atoms: _420  and  _421
REMARK  176  A    between atoms: _423  and  _425
REMARK  177  A    between atoms: _425  and  _426
REMARK  178  A    between atoms: _428  and  _430
REMARK  179  A    between atoms: _430  and  _431
REMARK  180  A    between atoms: _430  and  _433
REMARK  181  A    between atoms: _433  and  _434
REMARK  182  A    between atoms: _437  and  _439
REMARK  183  A    between atoms: _439  and  _440
REMARK  184  A    between atoms: _442  and  _444
REMARK  185  A    between atoms: _444  and  _445
REMARK  186  A    between atoms: _447  and  _449
REMARK  187  A    between atoms: _449  and  _450
REMARK  188  A    between atoms: _449  and  _452
REMARK  189  A    between atoms: _452  and  _453
REMARK  190  A    between atoms: _459  and  _461
REMARK  191  A    between atoms: _461  and  _462
REMARK  192  A    between atoms: _461  and  _464
REMARK  193  A    between atoms: _464  and  _465
REMARK  194  A    between atoms: _468  and  _470
REMARK  195  A    between atoms: _470  and  _471
REMARK  196  A    between atoms: _470  and  _473
REMARK  197  A    between atoms: _473  and  _474
REMARK  198  A    between atoms: _477  and  _479
REMARK  199  A    between atoms: _479  and  _480
REMARK  200  A    between atoms: _479  and  _482
REMARK  201  A    between atoms: _482  and  _483
REMARK  202  A    between atoms: _487  and  _488
REMARK  203  A    between atoms: _493  and  _495
REMARK  204  A    between atoms: _495  and  _496
REMARK  205  A    between atoms: _495  and  _498
REMARK  206  A    between atoms: _501  and  _503
REMARK  207  A    between atoms: _503  and  _504
REMARK  208  A    between atoms: _503  and  _506
REMARK  209  A    between atoms: _506  and  _507
REMARK  210  A    between atoms: _512  and  _514
REMARK  211  A    between atoms: _514  and  _515
REMARK  212  A    between atoms: _514  and  _517
REMARK  213  A    between atoms: _517  and  _518
REMARK  214  A    between atoms: _521  and  _523
REMARK  215  A    between atoms: _523  and  _524
REMARK  216  A    between atoms: _523  and  _526
REMARK  217  A    between atoms: _526  and  _527
REMARK  218  A    between atoms: _530  and  _532
REMARK  219  A    between atoms: _532  and  _533
REMARK  220  A    between atoms: _535  and  _537
REMARK  221  A    between atoms: _537  and  _538
REMARK  222  A    between atoms: _537  and  _540
REMARK  223  A    between atoms: _540  and  _541
REMARK  224  A    between atoms: _541  and  _542
REMARK  225  A    between atoms: _542  and  _543
REMARK  226  A    between atoms: _552  and  _554
REMARK  227  A    between atoms: _554  and  _555
REMARK  228  A    between atoms: _554  and  _557
REMARK  229  A    between atoms: _557  and  _558
REMARK                            x       y       z     vdW  Elec       q    Type
REMARK                         _______ _______ _______ _____ _____    ______ ____
ROOT
ATOM      1  O   HOH     1       6.694  15.829  18.157  0.00  0.00    +0.000 OA
ENDROOT
TORSDOF 0
REMARK  Name = ../refined-set-2016/2qci/2qci_pocket.pdb
REMARK  229 active torsions:
REMARK  status: ('A' for Active; 'I' for Inactive)
REMARK    1  A    between atoms: _1  and  _3
REMARK    2  A    between atoms: _3  and  _4
REMARK    3  A    between atoms: _3  and  _6
REMARK    4  A    between atoms: _6  and  _7
REMARK    5  A    between atoms: _7  and  _8
REMARK    6  A    between atoms: _8  and  _9
REMARK    7  A    between atoms: _18  and  _20
REMARK    8  A    between atoms: _20  and  _21
REMARK    9  A    between atoms: _20  and  _23
REMARK   10  A    between atoms: _23  and  _24
REMARK   11  A    between atoms: _27  and  _29
REMARK   12  A    between atoms: _29  and  _30
REMARK   13  A    between atoms: _29  and  _32
REMARK   14  A    between atoms: _32  and  _33
REMARK   15  A    between atoms: _36  and  _38
REMARK   16  A    between atoms: _38  and  _39
REMARK   17  A    between atoms: _38  and  _41
REMARK   18  A    between atoms: _41  and  _42
REMARK   19  A    between atoms: _45  and  _47
REMARK   20  A    between atoms: _47  and  _48
REMARK   21  A    between atoms: _47  and  _50
REMARK   22  A    between atoms: _50  and  _51
REMARK   23  A    between atoms: _54  and  _56
REMARK   24  A    between atoms: _56  and  _57
REMARK   25  A    between atoms: _59  and  _61
REMARK   26  A    between atoms: _61  and  _62
REMARK   27  A    between atoms: _65  and  _67
REMARK   28  A    between atoms: _67  and  _68
REMARK   29  A    between atoms: _67  and  _70
REMARK   30  A    between atoms: _70  and  _71
REMARK   31  A    between atoms: _74  and  _76
REMARK   32  A    between atoms: _76  and  _77
REMARK   33  A    between atoms: _76  and  _79
REMARK   34  A    between atoms: _79  and  _80
REMARK   35  A    between atoms: _85  and  _87
REMARK   36  A    between atoms: _87  and  _88
REMARK   37  A    between atoms: _87  and  _90
REMARK   38  A    between atoms: _90  and  _91
REMARK   39  A    between atoms: _94  and  _96
REMARK   40  A    between atoms: _96  and  _97
REMARK   41  A    between atoms: _96  and  _99
REMARK   42  A    between atoms: _102  and  _104
REMARK   43  A    between atoms: _104  and  _105
REMARK   44  A    between atoms: _104  and  _107
REMARK   45  A    between atoms: _107  and  _108
REMARK   46  A    between atoms: _108  and  _109
REMARK   47  A    between atoms: _109  and  _110
REMARK   48  A    between atoms: _110  and  _111
REMARK   49  A    between atoms: _115  and  _117
REMARK   50  A    between atoms: _117  and  _118
REMARK   51  A    between atoms: _117  and  _120
REMARK   52  A    between atoms: _120  and  _121
REMARK   53  A    between atoms: _121  and  _122
REMARK   54  A    between atoms: _124  and  _126
REMARK   55  A    between atoms: _126  and  _127
REMARK   56  A    between atoms: _126  and  _129
REMARK   57  A    between atoms: _129  and  _130
REMARK   58  A    between atoms: _133  and  _135
REMARK   59  A    between atoms: _135  and  _136
REMARK   60  A    between atoms: _138  and  _140
REMARK   61  A    between atoms: _140  and  _141
REMARK   62  A    between atoms: _143  and  _145
REMARK   63  A    between atoms: _145  and  _146
REMARK   64  A    between atoms: _145  and  _148
REMARK   65  A    between atoms: _148  and  _149
REMARK   66  A    between atoms: _152  and  _154
REMARK   67  A    between atoms: _154  and  _155
REMARK   68  A    between atoms: _157  and  _159
REMARK   69  A    between atoms: _159  and  _160
REMARK   70  A    between atoms: _162  and  _164
REMARK   71  A    between atoms: _164  and  _165
REMARK   72  A    between atoms: _164  and  _167
REMARK   73  A    between atoms: _167  and  _168
REMARK   74  A    between atoms: _174  and  _176
REMARK   75  A    between atoms: _176  and  _177
REMARK   76  A    between atoms: _176  and  _179
REMARK   77  A    between atoms: _179  and  _180
REMARK   78  A    between atoms: _183  and  _185
REMARK   79  A    between atoms: _185  and  _186
REMARK   80  A    between atoms: _185  and  _188
REMARK   81  A    between atoms: _191  and  _193
REMARK   82  A    between atoms: _193  and  _194
REMARK   83  A    between atoms: _193  and  _196
REMARK   84  A    between atoms: _196  and  _197
REMARK   85  A    between atoms: _200  and  _202
REMARK   86  A    between atoms: _202  and  _203
REMARK   87  A    between atoms: _202  and  _205
REMARK   88  A    between atoms: _205  and  _206
REMARK   89  A    between atoms: _210  and  _211
REMARK   90  A    between atoms: _216  and  _218
REMARK   91  A    between atoms: _218  and  _219
REMARK   92  A    between atoms: _218  and  _221
REMARK   93  A    between atoms: _224  and  _226
REMARK   94  A    between atoms: _226  and  _227
REMARK   95  A    between atoms: _226  and  _229
REMARK   96  A    between atoms: _229  and  _230
REMARK   97  A    between atoms: _235  and  _237
REMARK   98  A    between atoms: _237  and  _238
REMARK   99  A    between atoms: _237  and  _240
REMARK  100  A    between atoms: _240  and  _241
REMARK  101  A    between atoms: _244  and  _246
REMARK  102  A    between atoms: _246  and  _247
REMARK  103  A    between atoms: _246  and  _249
REMARK  104  A    between atoms: _249  and  _250
REMARK  105  A    between atoms: _253  and  _255
REMARK  106  A    between atoms: _255  and  _256
REMARK  107  A    between atoms: _258  and  _260
REMARK  108  A    between atoms: _260  and  _261
REMARK  109  A    between atoms: _260  and  _263
REMARK  110  A    between atoms: _263  and  _264
REMARK  111  A    between atoms: _264  and  _265
REMARK  112  A    between atoms: _265  and  _266
REMARK  113  A    between atoms: _275  and  _277
REMARK  114  A    between atoms: _277  and  _278
REMARK  115  A    between atoms: _277  and  _280
REMARK  116  A    between atoms: _280  and  _281
REMARK  117  A    between atoms: _286  and  _288
REMARK  118  A    between atoms: _288  and  _289
REMARK  119  A    between atoms: _288  and  _291
REMARK  120  A    between atoms: _291  and  _292
REMARK  121  A    between atoms: _292  and  _293
REMARK  122  A    between atoms: _293  and  _294
REMARK  123  A    between atoms: _303  and  _305
REMARK  124  A    between atoms: _305  and  _306
REMARK  125  A    between atoms: _305  and  _308
REMARK  126  A    between atoms: _308  and  _309
REMARK  127  A    between atoms: _312  and  _314
REMARK  128  A    between atoms: _314  and  _315
REMARK  129  A    between atoms: _314  and  _317
REMARK  130  A    between atoms: _317  and  _318
REMARK  131  A    between atoms: _321  and  _323
REMARK  132  A    between atoms: _323  and  _324
REMARK  133  A    between atoms: _323  and  _326
REMARK  134  A    between atoms: _326  and  _327
REMARK  135  A    between atoms: _330  and  _332
REMARK  136  A    between atoms: _332  and  _333
REMARK  137  A    between atoms: _332  and  _335
REMARK  138  A    between atoms: _335  and  _336
REMARK  139  A    between atoms: _339  and  _341
REMARK  140  A    between atoms: _341  and  _342
REMARK  141  A    between atoms: _344  and  _346
REMARK  142  A    between atoms: _346  and  _347
REMARK  143  A    between atoms: _350  and  _352
REMARK  144  A    between atoms: _352  and  _353
REMARK  145  A    between atoms: _352  and  _355
REMARK  146  A    between atoms: _355  and  _356
REMARK  147  A    between atoms: _359  and  _361
REMARK  148  A    between atoms: _361  and  _362
REMARK  149  A    between atoms: _361  and  _364
REMARK  150  A    between atoms: _364  and  _365
REMARK  151  A    between atoms: _370  and  _372
REMARK  152  A    between atoms: _372  and  _373
REMARK  153  A    between atoms: _372  and  _375
REMARK  154  A    between atoms: _375  and  _376
REMARK  155  A    between atoms: _379  and  _381
REMARK  156  A    between atoms: _381  and  _382
REMARK  157  A    between atoms: _381  and  _384
REMARK  158  A    between atoms: _387  and  _389
REMARK  159  A    between atoms: _389  and  _390
REMARK  160  A    between atoms: _389  and  _392
REMARK  161  A    between atoms: _392  and  _393
REMARK  162  A    between atoms: _393  and  _394
REMARK  163  A    between atoms: _394  and  _395
REMARK  164  A    between atoms: _395  and  _396
REMARK  165  A    between atoms: _400  and  _402
REMARK  166  A    between atoms: _402  and  _403
REMARK  167  A    between atoms: _402  and  _405
REMARK  168  A    between atoms: _405  and  _406
REMARK  169  A    between atoms: _406  and  _407
REMARK  170  A    between atoms: _409  and  _411
REMARK  171  A    between atoms: _411  and  _412
REMARK  172  A    between atoms: _411  and  _414
REMARK  173  A    between atoms: _414  and  _415
REMARK  174  A    between atoms: _418  and  _420
REMARK  175  A    between atoms: _420  and  _421
REMARK  176  A    between atoms: _423  and  _425
REMARK  177  A    between atoms: _425  and  _426
REMARK  178  A    between atoms: _428  and  _430
REMARK  179  A    between atoms: _430  and  _431
REMARK  180  A    between atoms: _430  and  _433
REMARK  181  A    between atoms: _433  and  _434
REMARK  182  A    between atoms: _437  and  _439
REMARK  183  A    between atoms: _439  and  _440
REMARK  184  A    between atoms: _442  and  _444
REMARK  185  A    between atoms: _444  and  _445
REMARK  186  A    between atoms: _447  and  _449
REMARK  187  A    between atoms: _449  and  _450
REMARK  188  A    between atoms: _449  and  _452
REMARK  189  A    between atoms: _452  and  _453
REMARK  190  A    between atoms: _459  and  _461
REMARK  191  A    between atoms: _461  and  _462
REMARK  192  A    between atoms: _461  and  _464
REMARK  193  A    between atoms: _464  and  _465
REMARK  194  A    between atoms: _468  and  _470
REMARK  195  A    between atoms: _470  and  _471
REMARK  196  A    between atoms: _470  and  _473
REMARK  197  A    between atoms: _473  and  _474
REMARK  198  A    between atoms: _477  and  _479
REMARK  199  A    between atoms: _479  and  _480
REMARK  200  A    between atoms: _479  and  _482
REMARK  201  A    between atoms: _482  and  _483
REMARK  202  A    between atoms: _487  and  _488
REMARK  203  A    between atoms: _493  and  _495
REMARK  204  A    between atoms: _495  and  _496
REMARK  205  A    between atoms: _495  and  _498
REMARK  206  A    between atoms: _501  and  _503
REMARK  207  A    between atoms: _503  and  _504
REMARK  208  A    between atoms: _503  and  _506
REMARK  209  A    between atoms: _506  and  _507
REMARK  210  A    between atoms: _512  and  _514
REMARK  211  A    between atoms: _514  and  _515
REMARK  212  A    between atoms: _514  and  _517
REMARK  213  A    between atoms: _517  and  _518
REMARK  214  A    between atoms: _521  and  _523
REMARK  215  A    between atoms: _523  and  _524
REMARK  216  A    between atoms: _523  and  _526
REMARK  217  A    between atoms: _526  and  _527
REMARK  218  A    between atoms: _530  and  _532
REMARK  219  A    between atoms: _532  and  _533
REMARK  220  A    between atoms: _535  and  _537
REMARK  221  A    between atoms: _537  and  _538
REMARK  222  A    between atoms: _537  and  _540
REMARK  223  A    between atoms: _540  and  _541
REMARK  224  A    between atoms: _541  and  _542
REMARK  225  A    between atoms: _542  and  _543
REMARK  226  A    between atoms: _552  and  _554
REMARK  227  A    between atoms: _554  and  _555
REMARK  228  A    between atoms: _554  and  _557
REMARK  229  A    between atoms: _557  and  _558
REMARK                            x       y       z     vdW  Elec       q    Type
REMARK                         _______ _______ _______ _____ _____    ______ ____
ROOT
ATOM      1  O   HOH     1       9.289  14.523  18.691  0.00  0.00    +0.000 OA
ENDROOT
TORSDOF 0
REMARK  Name = ../refined-set-2016/2qci/2qci_pocket.pdb
REMARK  229 active torsions:
REMARK  status: ('A' for Active; 'I' for Inactive)
REMARK    1  A    between atoms: _1  and  _3
REMARK    2  A    between atoms: _3  and  _4
REMARK    3  A    between atoms: _3  and  _6
REMARK    4  A    between atoms: _6  and  _7
REMARK    5  A    between atoms: _7  and  _8
REMARK    6  A    between atoms: _8  and  _9
REMARK    7  A    between atoms: _18  and  _20
REMARK    8  A    between atoms: _20  and  _21
REMARK    9  A    between atoms: _20  and  _23
REMARK   10  A    between atoms: _23  and  _24
REMARK   11  A    between atoms: _27  and  _29
REMARK   12  A    between atoms: _29  and  _30
REMARK   13  A    between atoms: _29  and  _32
REMARK   14  A    between atoms: _32  and  _33
REMARK   15  A    between atoms: _36  and  _38
REMARK   16  A    between atoms: _38  and  _39
REMARK   17  A    between atoms: _38  and  _41
REMARK   18  A    between atoms: _41  and  _42
REMARK   19  A    between atoms: _45  and  _47
REMARK   20  A    between atoms: _47  and  _48
REMARK   21  A    between atoms: _47  and  _50
REMARK   22  A    between atoms: _50  and  _51
REMARK   23  A    between atoms: _54  and  _56
REMARK   24  A    between atoms: _56  and  _57
REMARK   25  A    between atoms: _59  and  _61
REMARK   26  A    between atoms: _61  and  _62
REMARK   27  A    between atoms: _65  and  _67
REMARK   28  A    between atoms: _67  and  _68
REMARK   29  A    between atoms: _67  and  _70
REMARK   30  A    between atoms: _70  and  _71
REMARK   31  A    between atoms: _74  and  _76
REMARK   32  A    between atoms: _76  and  _77
REMARK   33  A    between atoms: _76  and  _79
REMARK   34  A    between atoms: _79  and  _80
REMARK   35  A    between atoms: _85  and  _87
REMARK   36  A    between atoms: _87  and  _88
REMARK   37  A    between atoms: _87  and  _90
REMARK   38  A    between atoms: _90  and  _91
REMARK   39  A    between atoms: _94  and  _96
REMARK   40  A    between atoms: _96  and  _97
REMARK   41  A    between atoms: _96  and  _99
REMARK   42  A    between atoms: _102  and  _104
REMARK   43  A    between atoms: _104  and  _105
REMARK   44  A    between atoms: _104  and  _107
REMARK   45  A    between atoms: _107  and  _108
REMARK   46  A    between atoms: _108  and  _109
REMARK   47  A    between atoms: _109  and  _110
REMARK   48  A    between atoms: _110  and  _111
REMARK   49  A    between atoms: _115  and  _117
REMARK   50  A    between atoms: _117  and  _118
REMARK   51  A    between atoms: _117  and  _120
REMARK   52  A    between atoms: _120  and  _121
REMARK   53  A    between atoms: _121  and  _122
REMARK   54  A    between atoms: _124  and  _126
REMARK   55  A    between atoms: _126  and  _127
REMARK   56  A    between atoms: _126  and  _129
REMARK   57  A    between atoms: _129  and  _130
REMARK   58  A    between atoms: _133  and  _135
REMARK   59  A    between atoms: _135  and  _136
REMARK   60  A    between atoms: _138  and  _140
REMARK   61  A    between atoms: _140  and  _141
REMARK   62  A    between atoms: _143  and  _145
REMARK   63  A    between atoms: _145  and  _146
REMARK   64  A    between atoms: _145  and  _148
REMARK   65  A    between atoms: _148  and  _149
REMARK   66  A    between atoms: _152  and  _154
REMARK   67  A    between atoms: _154  and  _155
REMARK   68  A    between atoms: _157  and  _159
REMARK   69  A    between atoms: _159  and  _160
REMARK   70  A    between atoms: _162  and  _164
REMARK   71  A    between atoms: _164  and  _165
REMARK   72  A    between atoms: _164  and  _167
REMARK   73  A    between atoms: _167  and  _168
REMARK   74  A    between atoms: _174  and  _176
REMARK   75  A    between atoms: _176  and  _177
REMARK   76  A    between atoms: _176  and  _179
REMARK   77  A    between atoms: _179  and  _180
REMARK   78  A    between atoms: _183  and  _185
REMARK   79  A    between atoms: _185  and  _186
REMARK   80  A    between atoms: _185  and  _188
REMARK   81  A    between atoms: _191  and  _193
REMARK   82  A    between atoms: _193  and  _194
REMARK   83  A    between atoms: _193  and  _196
REMARK   84  A    between atoms: _196  and  _197
REMARK   85  A    between atoms: _200  and  _202
REMARK   86  A    between atoms: _202  and  _203
REMARK   87  A    between atoms: _202  and  _205
REMARK   88  A    between atoms: _205  and  _206
REMARK   89  A    between atoms: _210  and  _211
REMARK   90  A    between atoms: _216  and  _218
REMARK   91  A    between atoms: _218  and  _219
REMARK   92  A    between atoms: _218  and  _221
REMARK   93  A    between atoms: _224  and  _226
REMARK   94  A    between atoms: _226  and  _227
REMARK   95  A    between atoms: _226  and  _229
REMARK   96  A    between atoms: _229  and  _230
REMARK   97  A    between atoms: _235  and  _237
REMARK   98  A    between atoms: _237  and  _238
REMARK   99  A    between atoms: _237  and  _240
REMARK  100  A    between atoms: _240  and  _241
REMARK  101  A    between atoms: _244  and  _246
REMARK  102  A    between atoms: _246  and  _247
REMARK  103  A    between atoms: _246  and  _249
REMARK  104  A    between atoms: _249  and  _250
REMARK  105  A    between atoms: _253  and  _255
REMARK  106  A    between atoms: _255  and  _256
REMARK  107  A    between atoms: _258  and  _260
REMARK  108  A    between atoms: _260  and  _261
REMARK  109  A    between atoms: _260  and  _263
REMARK  110  A    between atoms: _263  and  _264
REMARK  111  A    between atoms: _264  and  _265
REMARK  112  A    between atoms: _265  and  _266
REMARK  113  A    between atoms: _275  and  _277
REMARK  114  A    between atoms: _277  and  _278
REMARK  115  A    between atoms: _277  and  _280
REMARK  116  A    between atoms: _280  and  _281
REMARK  117  A    between atoms: _286  and  _288
REMARK  118  A    between atoms: _288  and  _289
REMARK  119  A    between atoms: _288  and  _291
REMARK  120  A    between atoms: _291  and  _292
REMARK  121  A    between atoms: _292  and  _293
REMARK  122  A    between atoms: _293  and  _294
REMARK  123  A    between atoms: _303  and  _305
REMARK  124  A    between atoms: _305  and  _306
REMARK  125  A    between atoms: _305  and  _308
REMARK  126  A    between atoms: _308  and  _309
REMARK  127  A    between atoms: _312  and  _314
REMARK  128  A    between atoms: _314  and  _315
REMARK  129  A    between atoms: _314  and  _317
REMARK  130  A    between atoms: _317  and  _318
REMARK  131  A    between atoms: _321  and  _323
REMARK  132  A    between atoms: _323  and  _324
REMARK  133  A    between atoms: _323  and  _326
REMARK  134  A    between atoms: _326  and  _327
REMARK  135  A    between atoms: _330  and  _332
REMARK  136  A    between atoms: _332  and  _333
REMARK  137  A    between atoms: _332  and  _335
REMARK  138  A    between atoms: _335  and  _336
REMARK  139  A    between atoms: _339  and  _341
REMARK  140  A    between atoms: _341  and  _342
REMARK  141  A    between atoms: _344  and  _346
REMARK  142  A    between atoms: _346  and  _347
REMARK  143  A    between atoms: _350  and  _352
REMARK  144  A    between atoms: _352  and  _353
REMARK  145  A    between atoms: _352  and  _355
REMARK  146  A    between atoms: _355  and  _356
REMARK  147  A    between atoms: _359  and  _361
REMARK  148  A    between atoms: _361  and  _362
REMARK  149  A    between atoms: _361  and  _364
REMARK  150  A    between atoms: _364  and  _365
REMARK  151  A    between atoms: _370  and  _372
REMARK  152  A    between atoms: _372  and  _373
REMARK  153  A    between atoms: _372  and  _375
REMARK  154  A    between atoms: _375  and  _376
REMARK  155  A    between atoms: _379  and  _381
REMARK  156  A    between atoms: _381  and  _382
REMARK  157  A    between atoms: _381  and  _384
REMARK  158  A    between atoms: _387  and  _389
REMARK  159  A    between atoms: _389  and  _390
REMARK  160  A    between atoms: _389  and  _392
REMARK  161  A    between atoms: _392  and  _393
REMARK  162  A    between atoms: _393  and  _394
REMARK  163  A    between atoms: _394  and  _395
REMARK  164  A    between atoms: _395  and  _396
REMARK  165  A    between atoms: _400  and  _402
REMARK  166  A    between atoms: _402  and  _403
REMARK  167  A    between atoms: _402  and  _405
REMARK  168  A    between atoms: _405  and  _406
REMARK  169  A    between atoms: _406  and  _407
REMARK  170  A    between atoms: _409  and  _411
REMARK  171  A    between atoms: _411  and  _412
REMARK  172  A    between atoms: _411  and  _414
REMARK  173  A    between atoms: _414  and  _415
REMARK  174  A    between atoms: _418  and  _420
REMARK  175  A    between atoms: _420  and  _421
REMARK  176  A    between atoms: _423  and  _425
REMARK  177  A    between atoms: _425  and  _426
REMARK  178  A    between atoms: _428  and  _430
REMARK  179  A    between atoms: _430  and  _431
REMARK  180  A    between atoms: _430  and  _433
REMARK  181  A    between atoms: _433  and  _434
REMARK  182  A    between atoms: _437  and  _439
REMARK  183  A    between atoms: _439  and  _440
REMARK  184  A    between atoms: _442  and  _444
REMARK  185  A    between atoms: _444  and  _445
REMARK  186  A    between atoms: _447  and  _449
REMARK  187  A    between atoms: _449  and  _450
REMARK  188  A    between atoms: _449  and  _452
REMARK  189  A    between atoms: _452  and  _453
REMARK  190  A    between atoms: _459  and  _461
REMARK  191  A    between atoms: _461  and  _462
REMARK  192  A    between atoms: _461  and  _464
REMARK  193  A    between atoms: _464  and  _465
REMARK  194  A    between atoms: _468  and  _470
REMARK  195  A    between atoms: _470  and  _471
REMARK  196  A    between atoms: _470  and  _473
REMARK  197  A    between atoms: _473  and  _474
REMARK  198  A    between atoms: _477  and  _479
REMARK  199  A    between atoms: _479  and  _480
REMARK  200  A    between atoms: _479  and  _482
REMARK  201  A    between atoms: _482  and  _483
REMARK  202  A    between atoms: _487  and  _488
REMARK  203  A    between atoms: _493  and  _495
REMARK  204  A    between atoms: _495  and  _496
REMARK  205  A    between atoms: _495  and  _498
REMARK  206  A    between atoms: _501  and  _503
REMARK  207  A    between atoms: _503  and  _504
REMARK  208  A    between atoms: _503  and  _506
REMARK  209  A    between atoms: _506  and  _507
REMARK  210  A    between atoms: _512  and  _514
REMARK  211  A    between atoms: _514  and  _515
REMARK  212  A    between atoms: _514  and  _517
REMARK  213  A    between atoms: _517  and  _518
REMARK  214  A    between atoms: _521  and  _523
REMARK  215  A    between atoms: _523  and  _524
REMARK  216  A    between atoms: _523  and  _526
REMARK  217  A    between atoms: _526  and  _527
REMARK  218  A    between atoms: _530  and  _532
REMARK  219  A    between atoms: _532  and  _533
REMARK  220  A    between atoms: _535  and  _537
REMARK  221  A    between atoms: _537  and  _538
REMARK  222  A    between atoms: _537  and  _540
REMARK  223  A    between atoms: _540  and  _541
REMARK  224  A    between atoms: _541  and  _542
REMARK  225  A    between atoms: _542  and  _543
REMARK  226  A    between atoms: _552  and  _554
REMARK  227  A    between atoms: _554  and  _555
REMARK  228  A    between atoms: _554  and  _557
REMARK  229  A    between atoms: _557  and  _558
REMARK                            x       y       z     vdW  Elec       q    Type
REMARK                         _______ _______ _______ _____ _____    ______ ____
ROOT
ATOM      1  O   HOH     1      20.703  28.018  18.399  0.00  0.00    +0.000 OA
ENDROOT
TORSDOF 0
REMARK  Name = ../refined-set-2016/2qci/2qci_pocket.pdb
REMARK  229 active torsions:
REMARK  status: ('A' for Active; 'I' for Inactive)
REMARK    1  A    between atoms: _1  and  _3
REMARK    2  A    between atoms: _3  and  _4
REMARK    3  A    between atoms: _3  and  _6
REMARK    4  A    between atoms: _6  and  _7
REMARK    5  A    between atoms: _7  and  _8
REMARK    6  A    between atoms: _8  and  _9
REMARK    7  A    between atoms: _18  and  _20
REMARK    8  A    between atoms: _20  and  _21
REMARK    9  A    between atoms: _20  and  _23
REMARK   10  A    between atoms: _23  and  _24
REMARK   11  A    between atoms: _27  and  _29
REMARK   12  A    between atoms: _29  and  _30
REMARK   13  A    between atoms: _29  and  _32
REMARK   14  A    between atoms: _32  and  _33
REMARK   15  A    between atoms: _36  and  _38
REMARK   16  A    between atoms: _38  and  _39
REMARK   17  A    between atoms: _38  and  _41
REMARK   18  A    between atoms: _41  and  _42
REMARK   19  A    between atoms: _45  and  _47
REMARK   20  A    between atoms: _47  and  _48
REMARK   21  A    between atoms: _47  and  _50
REMARK   22  A    between atoms: _50  and  _51
REMARK   23  A    between atoms: _54  and  _56
REMARK   24  A    between atoms: _56  and  _57
REMARK   25  A    between atoms: _59  and  _61
REMARK   26  A    between atoms: _61  and  _62
REMARK   27  A    between atoms: _65  and  _67
REMARK   28  A    between atoms: _67  and  _68
REMARK   29  A    between atoms: _67  and  _70
REMARK   30  A    between atoms: _70  and  _71
REMARK   31  A    between atoms: _74  and  _76
REMARK   32  A    between atoms: _76  and  _77
REMARK   33  A    between atoms: _76  and  _79
REMARK   34  A    between atoms: _79  and  _80
REMARK   35  A    between atoms: _85  and  _87
REMARK   36  A    between atoms: _87  and  _88
REMARK   37  A    between atoms: _87  and  _90
REMARK   38  A    between atoms: _90  and  _91
REMARK   39  A    between atoms: _94  and  _96
REMARK   40  A    between atoms: _96  and  _97
REMARK   41  A    between atoms: _96  and  _99
REMARK   42  A    between atoms: _102  and  _104
REMARK   43  A    between atoms: _104  and  _105
REMARK   44  A    between atoms: _104  and  _107
REMARK   45  A    between atoms: _107  and  _108
REMARK   46  A    between atoms: _108  and  _109
REMARK   47  A    between atoms: _109  and  _110
REMARK   48  A    between atoms: _110  and  _111
REMARK   49  A    between atoms: _115  and  _117
REMARK   50  A    between atoms: _117  and  _118
REMARK   51  A    between atoms: _117  and  _120
REMARK   52  A    between atoms: _120  and  _121
REMARK   53  A    between atoms: _121  and  _122
REMARK   54  A    between atoms: _124  and  _126
REMARK   55  A    between atoms: _126  and  _127
REMARK   56  A    between atoms: _126  and  _129
REMARK   57  A    between atoms: _129  and  _130
REMARK   58  A    between atoms: _133  and  _135
REMARK   59  A    between atoms: _135  and  _136
REMARK   60  A    between atoms: _138  and  _140
REMARK   61  A    between atoms: _140  and  _141
REMARK   62  A    between atoms: _143  and  _145
REMARK   63  A    between atoms: _145  and  _146
REMARK   64  A    between atoms: _145  and  _148
REMARK   65  A    between atoms: _148  and  _149
REMARK   66  A    between atoms: _152  and  _154
REMARK   67  A    between atoms: _154  and  _155
REMARK   68  A    between atoms: _157  and  _159
REMARK   69  A    between atoms: _159  and  _160
REMARK   70  A    between atoms: _162  and  _164
REMARK   71  A    between atoms: _164  and  _165
REMARK   72  A    between atoms: _164  and  _167
REMARK   73  A    between atoms: _167  and  _168
REMARK   74  A    between atoms: _174  and  _176
REMARK   75  A    between atoms: _176  and  _177
REMARK   76  A    between atoms: _176  and  _179
REMARK   77  A    between atoms: _179  and  _180
REMARK   78  A    between atoms: _183  and  _185
REMARK   79  A    between atoms: _185  and  _186
REMARK   80  A    between atoms: _185  and  _188
REMARK   81  A    between atoms: _191  and  _193
REMARK   82  A    between atoms: _193  and  _194
REMARK   83  A    between atoms: _193  and  _196
REMARK   84  A    between atoms: _196  and  _197
REMARK   85  A    between atoms: _200  and  _202
REMARK   86  A    between atoms: _202  and  _203
REMARK   87  A    between atoms: _202  and  _205
REMARK   88  A    between atoms: _205  and  _206
REMARK   89  A    between atoms: _210  and  _211
REMARK   90  A    between atoms: _216  and  _218
REMARK   91  A    between atoms: _218  and  _219
REMARK   92  A    between atoms: _218  and  _221
REMARK   93  A    between atoms: _224  and  _226
REMARK   94  A    between atoms: _226  and  _227
REMARK   95  A    between atoms: _226  and  _229
REMARK   96  A    between atoms: _229  and  _230
REMARK   97  A    between atoms: _235  and  _237
REMARK   98  A    between atoms: _237  and  _238
REMARK   99  A    between atoms: _237  and  _240
REMARK  100  A    between atoms: _240  and  _241
REMARK  101  A    between atoms: _244  and  _246
REMARK  102  A    between atoms: _246  and  _247
REMARK  103  A    between atoms: _246  and  _249
REMARK  104  A    between atoms: _249  and  _250
REMARK  105  A    between atoms: _253  and  _255
REMARK  106  A    between atoms: _255  and  _256
REMARK  107  A    between atoms: _258  and  _260
REMARK  108  A    between atoms: _260  and  _261
REMARK  109  A    between atoms: _260  and  _263
REMARK  110  A    between atoms: _263  and  _264
REMARK  111  A    between atoms: _264  and  _265
REMARK  112  A    between atoms: _265  and  _266
REMARK  113  A    between atoms: _275  and  _277
REMARK  114  A    between atoms: _277  and  _278
REMARK  115  A    between atoms: _277  and  _280
REMARK  116  A    between atoms: _280  and  _281
REMARK  117  A    between atoms: _286  and  _288
REMARK  118  A    between atoms: _288  and  _289
REMARK  119  A    between atoms: _288  and  _291
REMARK  120  A    between atoms: _291  and  _292
REMARK  121  A    between atoms: _292  and  _293
REMARK  122  A    between atoms: _293  and  _294
REMARK  123  A    between atoms: _303  and  _305
REMARK  124  A    between atoms: _305  and  _306
REMARK  125  A    between atoms: _305  and  _308
REMARK  126  A    between atoms: _308  and  _309
REMARK  127  A    between atoms: _312  and  _314
REMARK  128  A    between atoms: _314  and  _315
REMARK  129  A    between atoms: _314  and  _317
REMARK  130  A    between atoms: _317  and  _318
REMARK  131  A    between atoms: _321  and  _323
REMARK  132  A    between atoms: _323  and  _324
REMARK  133  A    between atoms: _323  and  _326
REMARK  134  A    between atoms: _326  and  _327
REMARK  135  A    between atoms: _330  and  _332
REMARK  136  A    between atoms: _332  and  _333
REMARK  137  A    between atoms: _332  and  _335
REMARK  138  A    between atoms: _335  and  _336
REMARK  139  A    between atoms: _339  and  _341
REMARK  140  A    between atoms: _341  and  _342
REMARK  141  A    between atoms: _344  and  _346
REMARK  142  A    between atoms: _346  and  _347
REMARK  143  A    between atoms: _350  and  _352
REMARK  144  A    between atoms: _352  and  _353
REMARK  145  A    between atoms: _352  and  _355
REMARK  146  A    between atoms: _355  and  _356
REMARK  147  A    between atoms: _359  and  _361
REMARK  148  A    between atoms: _361  and  _362
REMARK  149  A    between atoms: _361  and  _364
REMARK  150  A    between atoms: _364  and  _365
REMARK  151  A    between atoms: _370  and  _372
REMARK  152  A    between atoms: _372  and  _373
REMARK  153  A    between atoms: _372  and  _375
REMARK  154  A    between atoms: _375  and  _376
REMARK  155  A    between atoms: _379  and  _381
REMARK  156  A    between atoms: _381  and  _382
REMARK  157  A    between atoms: _381  and  _384
REMARK  158  A    between atoms: _387  and  _389
REMARK  159  A    between atoms: _389  and  _390
REMARK  160  A    between atoms: _389  and  _392
REMARK  161  A    between atoms: _392  and  _393
REMARK  162  A    between atoms: _393  and  _394
REMARK  163  A    between atoms: _394  and  _395
REMARK  164  A    between atoms: _395  and  _396
REMARK  165  A    between atoms: _400  and  _402
REMARK  166  A    between atoms: _402  and  _403
REMARK  167  A    between atoms: _402  and  _405
REMARK  168  A    between atoms: _405  and  _406
REMARK  169  A    between atoms: _406  and  _407
REMARK  170  A    between atoms: _409  and  _411
REMARK  171  A    between atoms: _411  and  _412
REMARK  172  A    between atoms: _411  and  _414
REMARK  173  A    between atoms: _414  and  _415
REMARK  174  A    between atoms: _418  and  _420
REMARK  175  A    between atoms: _420  and  _421
REMARK  176  A    between atoms: _423  and  _425
REMARK  177  A    between atoms: _425  and  _426
REMARK  178  A    between atoms: _428  and  _430
REMARK  179  A    between atoms: _430  and  _431
REMARK  180  A    between atoms: _430  and  _433
REMARK  181  A    between atoms: _433  and  _434
REMARK  182  A    between atoms: _437  and  _439
REMARK  183  A    between atoms: _439  and  _440
REMARK  184  A    between atoms: _442  and  _444
REMARK  185  A    between atoms: _444  and  _445
REMARK  186  A    between atoms: _447  and  _449
REMARK  187  A    between atoms: _449  and  _450
REMARK  188  A    between atoms: _449  and  _452
REMARK  189  A    between atoms: _452  and  _453
REMARK  190  A    between atoms: _459  and  _461
REMARK  191  A    between atoms: _461  and  _462
REMARK  192  A    between atoms: _461  and  _464
REMARK  193  A    between atoms: _464  and  _465
REMARK  194  A    between atoms: _468  and  _470
REMARK  195  A    between atoms: _470  and  _471
REMARK  196  A    between atoms: _470  and  _473
REMARK  197  A    between atoms: _473  and  _474
REMARK  198  A    between atoms: _477  and  _479
REMARK  199  A    between atoms: _479  and  _480
REMARK  200  A    between atoms: _479  and  _482
REMARK  201  A    between atoms: _482  and  _483
REMARK  202  A    between atoms: _487  and  _488
REMARK  203  A    between atoms: _493  and  _495
REMARK  204  A    between atoms: _495  and  _496
REMARK  205  A    between atoms: _495  and  _498
REMARK  206  A    between atoms: _501  and  _503
REMARK  207  A    between atoms: _503  and  _504
REMARK  208  A    between atoms: _503  and  _506
REMARK  209  A    between atoms: _506  and  _507
REMARK  210  A    between atoms: _512  and  _514
REMARK  211  A    between atoms: _514  and  _515
REMARK  212  A    between atoms: _514  and  _517
REMARK  213  A    between atoms: _517  and  _518
REMARK  214  A    between atoms: _521  and  _523
REMARK  215  A    between atoms: _523  and  _524
REMARK  216  A    between atoms: _523  and  _526
REMARK  217  A    between atoms: _526  and  _527
REMARK  218  A    between atoms: _530  and  _532
REMARK  219  A    between atoms: _532  and  _533
REMARK  220  A    between atoms: _535  and  _537
REMARK  221  A    between atoms: _537  and  _538
REMARK  222  A    between atoms: _537  and  _540
REMARK  223  A    between atoms: _540  and  _541
REMARK  224  A    between atoms: _541  and  _542
REMARK  225  A    between atoms: _542  and  _543
REMARK  226  A    between atoms: _552  and  _554
REMARK  227  A    between atoms: _554  and  _555
REMARK  228  A    between atoms: _554  and  _557
REMARK  229  A    between atoms: _557  and  _558
REMARK                            x       y       z     vdW  Elec       q    Type
REMARK                         _______ _______ _______ _____ _____    ______ ____
ROOT
ATOM      1  O   HOH     1      10.273  19.977  18.025  0.00  0.00    +0.000 OA
ENDROOT
TORSDOF 0
