REMARK  Name = ../refined-set-2016/2bo4/2bo4_pocket.pdb
REMARK  151 active torsions:
REMARK  status: ('A' for Active; 'I' for Inactive)
REMARK    1  A    between atoms: _1  and  _3
REMARK    2  A    between atoms: _3  and  _4
REMARK    3  A    between atoms: _3  and  _6
REMARK    4  A    between atoms: _6  and  _7
REMARK    5  A    between atoms: _7  and  _8
REMARK    6  A    between atoms: _8  and  _9
REMARK    7  A    between atoms: _9  and  _10
REMARK    8  A    between atoms: _14  and  _16
REMARK    9  A    between atoms: _16  and  _17
REMARK   10  A    between atoms: _16  and  _19
REMARK   11  A    between atoms: _19  and  _20
REMARK   12  A    between atoms: _23  and  _25
REMARK   13  A    between atoms: _25  and  _26
REMARK   14  A    between atoms: _25  and  _28
REMARK   15  A    between atoms: _28  and  _29
REMARK   16  A    between atoms: _32  and  _34
REMARK   17  A    between atoms: _34  and  _35
REMARK   18  A    between atoms: _34  and  _37
REMARK   19  A    between atoms: _37  and  _38
REMARK   20  A    between atoms: _38  and  _39
REMARK   21  A    between atoms: _39  and  _40
REMARK   22  A    between atoms: _49  and  _51
REMARK   23  A    between atoms: _51  and  _52
REMARK   24  A    between atoms: _55  and  _57
REMARK   25  A    between atoms: _57  and  _58
REMARK   26  A    between atoms: _57  and  _60
REMARK   27  A    between atoms: _60  and  _61
REMARK   28  A    between atoms: _64  and  _66
REMARK   29  A    between atoms: _66  and  _67
REMARK   30  A    between atoms: _66  and  _69
REMARK   31  A    between atoms: _69  and  _70
REMARK   32  A    between atoms: _73  and  _75
REMARK   33  A    between atoms: _75  and  _76
REMARK   34  A    between atoms: _79  and  _81
REMARK   35  A    between atoms: _81  and  _82
REMARK   36  A    between atoms: _81  and  _84
REMARK   37  A    between atoms: _84  and  _85
REMARK   38  A    between atoms: _85  and  _86
REMARK   39  A    between atoms: _88  and  _90
REMARK   40  A    between atoms: _90  and  _91
REMARK   41  A    between atoms: _90  and  _93
REMARK   42  A    between atoms: _93  and  _94
REMARK   43  A    between atoms: _97  and  _99
REMARK   44  A    between atoms: _99  and  _100
REMARK   45  A    between atoms: _99  and  _102
REMARK   46  A    between atoms: _102  and  _103
REMARK   47  A    between atoms: _106  and  _108
REMARK   48  A    between atoms: _108  and  _109
REMARK   49  A    between atoms: _108  and  _111
REMARK   50  A    between atoms: _111  and  _112
REMARK   51  A    between atoms: _122  and  _124
REMARK   52  A    between atoms: _124  and  _125
REMARK   53  A    between atoms: _124  and  _127
REMARK   54  A    between atoms: _127  and  _128
REMARK   55  A    between atoms: _128  and  _129
REMARK   56  A    between atoms: _131  and  _133
REMARK   57  A    between atoms: _133  and  _134
REMARK   58  A    between atoms: _133  and  _136
REMARK   59  A    between atoms: _136  and  _137
REMARK   60  A    between atoms: _140  and  _142
REMARK   61  A    between atoms: _142  and  _143
REMARK   62  A    between atoms: _142  and  _145
REMARK   63  A    between atoms: _145  and  _146
REMARK   64  A    between atoms: _149  and  _151
REMARK   65  A    between atoms: _151  and  _152
REMARK   66  A    between atoms: _151  and  _154
REMARK   67  A    between atoms: _154  and  _155
REMARK   68  A    between atoms: _155  and  _156
REMARK   69  A    between atoms: _156  and  _157
REMARK   70  A    between atoms: _166  and  _168
REMARK   71  A    between atoms: _168  and  _169
REMARK   72  A    between atoms: _168  and  _171
REMARK   73  A    between atoms: _171  and  _172
REMARK   74  A    between atoms: _172  and  _173
REMARK   75  A    between atoms: _176  and  _178
REMARK   76  A    between atoms: _178  and  _179
REMARK   77  A    between atoms: _178  and  _181
REMARK   78  A    between atoms: _181  and  _182
REMARK   79  A    between atoms: _182  and  _183
REMARK   80  A    between atoms: _189  and  _190
REMARK   81  A    between atoms: _195  and  _197
REMARK   82  A    between atoms: _197  and  _198
REMARK   83  A    between atoms: _197  and  _200
REMARK   84  A    between atoms: _200  and  _201
REMARK   85  A    between atoms: _204  and  _206
REMARK   86  A    between atoms: _206  and  _207
REMARK   87  A    between atoms: _209  and  _211
REMARK   88  A    between atoms: _211  and  _212
REMARK   89  A    between atoms: _214  and  _216
REMARK   90  A    between atoms: _216  and  _217
REMARK   91  A    between atoms: _216  and  _219
REMARK   92  A    between atoms: _219  and  _220
REMARK   93  A    between atoms: _230  and  _232
REMARK   94  A    between atoms: _232  and  _233
REMARK   95  A    between atoms: _232  and  _235
REMARK   96  A    between atoms: _235  and  _236
REMARK   97  A    between atoms: _236  and  _237
REMARK   98  A    between atoms: _237  and  _238
REMARK   99  A    between atoms: _238  and  _239
REMARK  100  A    between atoms: _243  and  _245
REMARK  101  A    between atoms: _245  and  _246
REMARK  102  A    between atoms: _249  and  _251
REMARK  103  A    between atoms: _251  and  _252
REMARK  104  A    between atoms: _251  and  _254
REMARK  105  A    between atoms: _254  and  _255
REMARK  106  A    between atoms: _260  and  _262
REMARK  107  A    between atoms: _262  and  _263
REMARK  108  A    between atoms: _262  and  _265
REMARK  109  A    between atoms: _265  and  _266
REMARK  110  A    between atoms: _266  and  _267
REMARK  111  A    between atoms: _267  and  _268
REMARK  112  A    between atoms: _277  and  _279
REMARK  113  A    between atoms: _279  and  _280
REMARK  114  A    between atoms: _279  and  _282
REMARK  115  A    between atoms: _282  and  _283
REMARK  116  A    between atoms: _286  and  _288
REMARK  117  A    between atoms: _288  and  _289
REMARK  118  A    between atoms: _288  and  _291
REMARK  119  A    between atoms: _291  and  _292
REMARK  120  A    between atoms: _295  and  _297
REMARK  121  A    between atoms: _297  and  _298
REMARK  122  A    between atoms: _297  and  _300
REMARK  123  A    between atoms: _300  and  _301
REMARK  124  A    between atoms: _304  and  _306
REMARK  125  A    between atoms: _306  and  _307
REMARK  126  A    between atoms: _306  and  _309
REMARK  127  A    between atoms: _309  and  _310
REMARK  128  A    between atoms: _313  and  _315
REMARK  129  A    between atoms: _315  and  _316
REMARK  130  A    between atoms: _315  and  _318
REMARK  131  A    between atoms: _318  and  _319
REMARK  132  A    between atoms: _319  and  _320
REMARK  133  A    between atoms: _322  and  _324
REMARK  134  A    between atoms: _324  and  _325
REMARK  135  A    between atoms: _324  and  _327
REMARK  136  A    between atoms: _327  and  _328
REMARK  137  A    between atoms: _331  and  _333
REMARK  138  A    between atoms: _333  and  _334
REMARK  139  A    between atoms: _333  and  _336
REMARK  140  A    between atoms: _338  and  _340
REMARK  141  A    between atoms: _340  and  _341
REMARK  142  A    between atoms: _340  and  _343
REMARK  143  A    between atoms: _343  and  _344
REMARK  144  A    between atoms: _344  and  _345
REMARK  145  A    between atoms: _345  and  _346
REMARK  146  A    between atoms: _355  and  _357
REMARK  147  A    between atoms: _357  and  _358
REMARK  148  A    between atoms: _360  and  _362
REMARK  149  A    between atoms: _362  and  _363
REMARK  150  A    between atoms: _362  and  _365
REMARK  151  A    between atoms: _365  and  _366
REMARK                            x       y       z     vdW  Elec       q    Type
REMARK                         _______ _______ _______ _____ _____    ______ ____
ROOT
ATOM      1  CG  LYS A   1      99.244  -4.922  39.202  0.00  0.00    -0.000 C 
ENDROOT
BRANCH   1   2
ATOM      2  CB  LYS A   1     100.445  -5.153  40.107  0.00  0.00    +0.025 C 
BRANCH   2   3
ATOM      3  CA  LYS A   1     101.428  -6.246  39.692  0.00  0.00    +0.133 C 
BRANCH   3   4
ATOM      4  N   LYS A   1     100.753  -7.267  38.890  0.00  0.00    -0.239 NA
ATOM      5  H   LYS A   1     100.208  -7.998  39.390  0.00  0.00    +0.142 HD
ENDBRANCH   3   4
BRANCH   3   6
ATOM      6  C   LYS A   1     102.031  -6.846  40.969  0.00  0.00    +0.224 C 
ATOM      7  O   LYS A   1     102.445  -8.011  40.978  0.00  0.00    -0.287 OA
ENDBRANCH   3   6
ENDBRANCH   2   3
ENDBRANCH   1   2
BRANCH   1   8
ATOM      8  CD  LYS A   1      98.110  -4.234  39.972  0.00  0.00    -0.024 C 
BRANCH   8   9
ATOM      9  CE  LYS A   1      97.395  -5.194  40.916  0.00  0.00    -0.086 C 
BRANCH   9  10
ATOM     10  NZ  LYS A   1      96.998  -4.540  42.207  0.00  0.00    +0.380 N 
ATOM     11  HZ1 LYS A   1      96.516  -5.235  42.812  0.00  0.00    -0.089 HD
ATOM     12  HZ2 LYS A   1      97.848  -4.187  42.691  0.00  0.00    -0.089 HD
ATOM     13  HZ3 LYS A   1      96.356  -3.746  42.009  0.00  0.00    -0.089 HD
ENDBRANCH   9  10
ENDBRANCH   8   9
ENDBRANCH   1   8
TORSDOF 7
REMARK  Name = ../refined-set-2016/2bo4/2bo4_pocket.pdb
REMARK  151 active torsions:
REMARK  status: ('A' for Active; 'I' for Inactive)
REMARK    1  A    between atoms: _1  and  _3
REMARK    2  A    between atoms: _3  and  _4
REMARK    3  A    between atoms: _3  and  _6
REMARK    4  A    between atoms: _6  and  _7
REMARK    5  A    between atoms: _7  and  _8
REMARK    6  A    between atoms: _8  and  _9
REMARK    7  A    between atoms: _9  and  _10
REMARK    8  A    between atoms: _14  and  _16
REMARK    9  A    between atoms: _16  and  _17
REMARK   10  A    between atoms: _16  and  _19
REMARK   11  A    between atoms: _19  and  _20
REMARK   12  A    between atoms: _23  and  _25
REMARK   13  A    between atoms: _25  and  _26
REMARK   14  A    between atoms: _25  and  _28
REMARK   15  A    between atoms: _28  and  _29
REMARK   16  A    between atoms: _32  and  _34
REMARK   17  A    between atoms: _34  and  _35
REMARK   18  A    between atoms: _34  and  _37
REMARK   19  A    between atoms: _37  and  _38
REMARK   20  A    between atoms: _38  and  _39
REMARK   21  A    between atoms: _39  and  _40
REMARK   22  A    between atoms: _49  and  _51
REMARK   23  A    between atoms: _51  and  _52
REMARK   24  A    between atoms: _55  and  _57
REMARK   25  A    between atoms: _57  and  _58
REMARK   26  A    between atoms: _57  and  _60
REMARK   27  A    between atoms: _60  and  _61
REMARK   28  A    between atoms: _64  and  _66
REMARK   29  A    between atoms: _66  and  _67
REMARK   30  A    between atoms: _66  and  _69
REMARK   31  A    between atoms: _69  and  _70
REMARK   32  A    between atoms: _73  and  _75
REMARK   33  A    between atoms: _75  and  _76
REMARK   34  A    between atoms: _79  and  _81
REMARK   35  A    between atoms: _81  and  _82
REMARK   36  A    between atoms: _81  and  _84
REMARK   37  A    between atoms: _84  and  _85
REMARK   38  A    between atoms: _85  and  _86
REMARK   39  A    between atoms: _88  and  _90
REMARK   40  A    between atoms: _90  and  _91
REMARK   41  A    between atoms: _90  and  _93
REMARK   42  A    between atoms: _93  and  _94
REMARK   43  A    between atoms: _97  and  _99
REMARK   44  A    between atoms: _99  and  _100
REMARK   45  A    between atoms: _99  and  _102
REMARK   46  A    between atoms: _102  and  _103
REMARK   47  A    between atoms: _106  and  _108
REMARK   48  A    between atoms: _108  and  _109
REMARK   49  A    between atoms: _108  and  _111
REMARK   50  A    between atoms: _111  and  _112
REMARK   51  A    between atoms: _122  and  _124
REMARK   52  A    between atoms: _124  and  _125
REMARK   53  A    between atoms: _124  and  _127
REMARK   54  A    between atoms: _127  and  _128
REMARK   55  A    between atoms: _128  and  _129
REMARK   56  A    between atoms: _131  and  _133
REMARK   57  A    between atoms: _133  and  _134
REMARK   58  A    between atoms: _133  and  _136
REMARK   59  A    between atoms: _136  and  _137
REMARK   60  A    between atoms: _140  and  _142
REMARK   61  A    between atoms: _142  and  _143
REMARK   62  A    between atoms: _142  and  _145
REMARK   63  A    between atoms: _145  and  _146
REMARK   64  A    between atoms: _149  and  _151
REMARK   65  A    between atoms: _151  and  _152
REMARK   66  A    between atoms: _151  and  _154
REMARK   67  A    between atoms: _154  and  _155
REMARK   68  A    between atoms: _155  and  _156
REMARK   69  A    between atoms: _156  and  _157
REMARK   70  A    between atoms: _166  and  _168
REMARK   71  A    between atoms: _168  and  _169
REMARK   72  A    between atoms: _168  and  _171
REMARK   73  A    between atoms: _171  and  _172
REMARK   74  A    between atoms: _172  and  _173
REMARK   75  A    between atoms: _176  and  _178
REMARK   76  A    between atoms: _178  and  _179
REMARK   77  A    between atoms: _178  and  _181
REMARK   78  A    between atoms: _181  and  _182
REMARK   79  A    between atoms: _182  and  _183
REMARK   80  A    between atoms: _189  and  _190
REMARK   81  A    between atoms: _195  and  _197
REMARK   82  A    between atoms: _197  and  _198
REMARK   83  A    between atoms: _197  and  _200
REMARK   84  A    between atoms: _200  and  _201
REMARK   85  A    between atoms: _204  and  _206
REMARK   86  A    between atoms: _206  and  _207
REMARK   87  A    between atoms: _209  and  _211
REMARK   88  A    between atoms: _211  and  _212
REMARK   89  A    between atoms: _214  and  _216
REMARK   90  A    between atoms: _216  and  _217
REMARK   91  A    between atoms: _216  and  _219
REMARK   92  A    between atoms: _219  and  _220
REMARK   93  A    between atoms: _230  and  _232
REMARK   94  A    between atoms: _232  and  _233
REMARK   95  A    between atoms: _232  and  _235
REMARK   96  A    between atoms: _235  and  _236
REMARK   97  A    between atoms: _236  and  _237
REMARK   98  A    between atoms: _237  and  _238
REMARK   99  A    between atoms: _238  and  _239
REMARK  100  A    between atoms: _243  and  _245
REMARK  101  A    between atoms: _245  and  _246
REMARK  102  A    between atoms: _249  and  _251
REMARK  103  A    between atoms: _251  and  _252
REMARK  104  A    between atoms: _251  and  _254
REMARK  105  A    between atoms: _254  and  _255
REMARK  106  A    between atoms: _260  and  _262
REMARK  107  A    between atoms: _262  and  _263
REMARK  108  A    between atoms: _262  and  _265
REMARK  109  A    between atoms: _265  and  _266
REMARK  110  A    between atoms: _266  and  _267
REMARK  111  A    between atoms: _267  and  _268
REMARK  112  A    between atoms: _277  and  _279
REMARK  113  A    between atoms: _279  and  _280
REMARK  114  A    between atoms: _279  and  _282
REMARK  115  A    between atoms: _282  and  _283
REMARK  116  A    between atoms: _286  and  _288
REMARK  117  A    between atoms: _288  and  _289
REMARK  118  A    between atoms: _288  and  _291
REMARK  119  A    between atoms: _291  and  _292
REMARK  120  A    between atoms: _295  and  _297
REMARK  121  A    between atoms: _297  and  _298
REMARK  122  A    between atoms: _297  and  _300
REMARK  123  A    between atoms: _300  and  _301
REMARK  124  A    between atoms: _304  and  _306
REMARK  125  A    between atoms: _306  and  _307
REMARK  126  A    between atoms: _306  and  _309
REMARK  127  A    between atoms: _309  and  _310
REMARK  128  A    between atoms: _313  and  _315
REMARK  129  A    between atoms: _315  and  _316
REMARK  130  A    between atoms: _315  and  _318
REMARK  131  A    between atoms: _318  and  _319
REMARK  132  A    between atoms: _319  and  _320
REMARK  133  A    between atoms: _322  and  _324
REMARK  134  A    between atoms: _324  and  _325
REMARK  135  A    between atoms: _324  and  _327
REMARK  136  A    between atoms: _327  and  _328
REMARK  137  A    between atoms: _331  and  _333
REMARK  138  A    between atoms: _333  and  _334
REMARK  139  A    between atoms: _333  and  _336
REMARK  140  A    between atoms: _338  and  _340
REMARK  141  A    between atoms: _340  and  _341
REMARK  142  A    between atoms: _340  and  _343
REMARK  143  A    between atoms: _343  and  _344
REMARK  144  A    between atoms: _344  and  _345
REMARK  145  A    between atoms: _345  and  _346
REMARK  146  A    between atoms: _355  and  _357
REMARK  147  A    between atoms: _357  and  _358
REMARK  148  A    between atoms: _360  and  _362
REMARK  149  A    between atoms: _362  and  _363
REMARK  150  A    between atoms: _362  and  _365
REMARK  151  A    between atoms: _365  and  _366
REMARK                            x       y       z     vdW  Elec       q    Type
REMARK                         _______ _______ _______ _____ _____    ______ ____
ROOT
ATOM      1  CA  ASP A   1      93.188 -10.089  35.997  0.00  0.00    +0.144 C 
ENDROOT
BRANCH   1   2
ATOM      2  N   ASP A   1      92.410 -10.658  34.905  0.00  0.00    -0.239 NA
ATOM      3  H   ASP A   1      91.384 -10.494  34.865  0.00  0.00    +0.142 HD
ENDBRANCH   1   2
BRANCH   1   4
ATOM      4  C   ASP A   1      93.914 -11.213  36.741  0.00  0.00    +0.225 C 
ATOM      5  O   ASP A   1      93.344 -12.262  37.002  0.00  0.00    -0.287 OA
ENDBRANCH   1   4
BRANCH   1   6
ATOM      6  CB  ASP A   1      92.307  -9.251  36.931  0.00  0.00    +0.139 C 
BRANCH   6   7
ATOM      7  CG  ASP A   1      91.917  -7.896  36.314  0.00  0.00    +0.367 C 
ATOM      8  OD2 ASP A   1      90.944  -7.216  36.730  0.00  0.00    -0.246 OA
ATOM      9  OD1 ASP A   1      92.577  -7.449  35.331  0.00  0.00    -0.246 OA
ENDBRANCH   6   7
ENDBRANCH   1   6
TORSDOF 4
REMARK  Name = ../refined-set-2016/2bo4/2bo4_pocket.pdb
REMARK  151 active torsions:
REMARK  status: ('A' for Active; 'I' for Inactive)
REMARK    1  A    between atoms: _1  and  _3
REMARK    2  A    between atoms: _3  and  _4
REMARK    3  A    between atoms: _3  and  _6
REMARK    4  A    between atoms: _6  and  _7
REMARK    5  A    between atoms: _7  and  _8
REMARK    6  A    between atoms: _8  and  _9
REMARK    7  A    between atoms: _9  and  _10
REMARK    8  A    between atoms: _14  and  _16
REMARK    9  A    between atoms: _16  and  _17
REMARK   10  A    between atoms: _16  and  _19
REMARK   11  A    between atoms: _19  and  _20
REMARK   12  A    between atoms: _23  and  _25
REMARK   13  A    between atoms: _25  and  _26
REMARK   14  A    between atoms: _25  and  _28
REMARK   15  A    between atoms: _28  and  _29
REMARK   16  A    between atoms: _32  and  _34
REMARK   17  A    between atoms: _34  and  _35
REMARK   18  A    between atoms: _34  and  _37
REMARK   19  A    between atoms: _37  and  _38
REMARK   20  A    between atoms: _38  and  _39
REMARK   21  A    between atoms: _39  and  _40
REMARK   22  A    between atoms: _49  and  _51
REMARK   23  A    between atoms: _51  and  _52
REMARK   24  A    between atoms: _55  and  _57
REMARK   25  A    between atoms: _57  and  _58
REMARK   26  A    between atoms: _57  and  _60
REMARK   27  A    between atoms: _60  and  _61
REMARK   28  A    between atoms: _64  and  _66
REMARK   29  A    between atoms: _66  and  _67
REMARK   30  A    between atoms: _66  and  _69
REMARK   31  A    between atoms: _69  and  _70
REMARK   32  A    between atoms: _73  and  _75
REMARK   33  A    between atoms: _75  and  _76
REMARK   34  A    between atoms: _79  and  _81
REMARK   35  A    between atoms: _81  and  _82
REMARK   36  A    between atoms: _81  and  _84
REMARK   37  A    between atoms: _84  and  _85
REMARK   38  A    between atoms: _85  and  _86
REMARK   39  A    between atoms: _88  and  _90
REMARK   40  A    between atoms: _90  and  _91
REMARK   41  A    between atoms: _90  and  _93
REMARK   42  A    between atoms: _93  and  _94
REMARK   43  A    between atoms: _97  and  _99
REMARK   44  A    between atoms: _99  and  _100
REMARK   45  A    between atoms: _99  and  _102
REMARK   46  A    between atoms: _102  and  _103
REMARK   47  A    between atoms: _106  and  _108
REMARK   48  A    between atoms: _108  and  _109
REMARK   49  A    between atoms: _108  and  _111
REMARK   50  A    between atoms: _111  and  _112
REMARK   51  A    between atoms: _122  and  _124
REMARK   52  A    between atoms: _124  and  _125
REMARK   53  A    between atoms: _124  and  _127
REMARK   54  A    between atoms: _127  and  _128
REMARK   55  A    between atoms: _128  and  _129
REMARK   56  A    between atoms: _131  and  _133
REMARK   57  A    between atoms: _133  and  _134
REMARK   58  A    between atoms: _133  and  _136
REMARK   59  A    between atoms: _136  and  _137
REMARK   60  A    between atoms: _140  and  _142
REMARK   61  A    between atoms: _142  and  _143
REMARK   62  A    between atoms: _142  and  _145
REMARK   63  A    between atoms: _145  and  _146
REMARK   64  A    between atoms: _149  and  _151
REMARK   65  A    between atoms: _151  and  _152
REMARK   66  A    between atoms: _151  and  _154
REMARK   67  A    between atoms: _154  and  _155
REMARK   68  A    between atoms: _155  and  _156
REMARK   69  A    between atoms: _156  and  _157
REMARK   70  A    between atoms: _166  and  _168
REMARK   71  A    between atoms: _168  and  _169
REMARK   72  A    between atoms: _168  and  _171
REMARK   73  A    between atoms: _171  and  _172
REMARK   74  A    between atoms: _172  and  _173
REMARK   75  A    between atoms: _176  and  _178
REMARK   76  A    between atoms: _178  and  _179
REMARK   77  A    between atoms: _178  and  _181
REMARK   78  A    between atoms: _181  and  _182
REMARK   79  A    between atoms: _182  and  _183
REMARK   80  A    between atoms: _189  and  _190
REMARK   81  A    between atoms: _195  and  _197
REMARK   82  A    between atoms: _197  and  _198
REMARK   83  A    between atoms: _197  and  _200
REMARK   84  A    between atoms: _200  and  _201
REMARK   85  A    between atoms: _204  and  _206
REMARK   86  A    between atoms: _206  and  _207
REMARK   87  A    between atoms: _209  and  _211
REMARK   88  A    between atoms: _211  and  _212
REMARK   89  A    between atoms: _214  and  _216
REMARK   90  A    between atoms: _216  and  _217
REMARK   91  A    between atoms: _216  and  _219
REMARK   92  A    between atoms: _219  and  _220
REMARK   93  A    between atoms: _230  and  _232
REMARK   94  A    between atoms: _232  and  _233
REMARK   95  A    between atoms: _232  and  _235
REMARK   96  A    between atoms: _235  and  _236
REMARK   97  A    between atoms: _236  and  _237
REMARK   98  A    between atoms: _237  and  _238
REMARK   99  A    between atoms: _238  and  _239
REMARK  100  A    between atoms: _243  and  _245
REMARK  101  A    between atoms: _245  and  _246
REMARK  102  A    between atoms: _249  and  _251
REMARK  103  A    between atoms: _251  and  _252
REMARK  104  A    between atoms: _251  and  _254
REMARK  105  A    between atoms: _254  and  _255
REMARK  106  A    between atoms: _260  and  _262
REMARK  107  A    between atoms: _262  and  _263
REMARK  108  A    between atoms: _262  and  _265
REMARK  109  A    between atoms: _265  and  _266
REMARK  110  A    between atoms: _266  and  _267
REMARK  111  A    between atoms: _267  and  _268
REMARK  112  A    between atoms: _277  and  _279
REMARK  113  A    between atoms: _279  and  _280
REMARK  114  A    between atoms: _279  and  _282
REMARK  115  A    between atoms: _282  and  _283
REMARK  116  A    between atoms: _286  and  _288
REMARK  117  A    between atoms: _288  and  _289
REMARK  118  A    between atoms: _288  and  _291
REMARK  119  A    between atoms: _291  and  _292
REMARK  120  A    between atoms: _295  and  _297
REMARK  121  A    between atoms: _297  and  _298
REMARK  122  A    between atoms: _297  and  _300
REMARK  123  A    between atoms: _300  and  _301
REMARK  124  A    between atoms: _304  and  _306
REMARK  125  A    between atoms: _306  and  _307
REMARK  126  A    between atoms: _306  and  _309
REMARK  127  A    between atoms: _309  and  _310
REMARK  128  A    between atoms: _313  and  _315
REMARK  129  A    between atoms: _315  and  _316
REMARK  130  A    between atoms: _315  and  _318
REMARK  131  A    between atoms: _318  and  _319
REMARK  132  A    between atoms: _319  and  _320
REMARK  133  A    between atoms: _322  and  _324
REMARK  134  A    between atoms: _324  and  _325
REMARK  135  A    between atoms: _324  and  _327
REMARK  136  A    between atoms: _327  and  _328
REMARK  137  A    between atoms: _331  and  _333
REMARK  138  A    between atoms: _333  and  _334
REMARK  139  A    between atoms: _333  and  _336
REMARK  140  A    between atoms: _338  and  _340
REMARK  141  A    between atoms: _340  and  _341
REMARK  142  A    between atoms: _340  and  _343
REMARK  143  A    between atoms: _343  and  _344
REMARK  144  A    between atoms: _344  and  _345
REMARK  145  A    between atoms: _345  and  _346
REMARK  146  A    between atoms: _355  and  _357
REMARK  147  A    between atoms: _357  and  _358
REMARK  148  A    between atoms: _360  and  _362
REMARK  149  A    between atoms: _362  and  _363
REMARK  150  A    between atoms: _362  and  _365
REMARK  151  A    between atoms: _365  and  _366
REMARK                            x       y       z     vdW  Elec       q    Type
REMARK                         _______ _______ _______ _____ _____    ______ ____
ROOT
ATOM      1  CA  ASP A   1      94.774 -11.698  41.206  0.00  0.00    +0.144 C 
ENDROOT
BRANCH   1   2
ATOM      2  N   ASP A   1      95.053 -11.509  39.780  0.00  0.00    -0.239 NA
ATOM      3  H   ASP A   1      94.746 -10.625  39.325  0.00  0.00    +0.142 HD
ENDBRANCH   1   2
BRANCH   1   4
ATOM      4  C   ASP A   1      93.451 -12.403  41.522  0.00  0.00    +0.225 C 
ATOM      5  O   ASP A   1      93.062 -12.491  42.687  0.00  0.00    -0.287 OA
ENDBRANCH   1   4
BRANCH   1   6
ATOM      6  CB  ASP A   1      94.833 -10.349  41.948  0.00  0.00    +0.139 C 
BRANCH   6   7
ATOM      7  CG  ASP A   1      93.718  -9.381  41.543  0.00  0.00    +0.367 C 
ATOM      8  OD2 ASP A   1      93.664  -8.203  41.974  0.00  0.00    -0.246 OA
ATOM      9  OD1 ASP A   1      92.825  -9.743  40.742  0.00  0.00    -0.246 OA
ENDBRANCH   6   7
ENDBRANCH   1   6
TORSDOF 4
REMARK  Name = ../refined-set-2016/2bo4/2bo4_pocket.pdb
REMARK  151 active torsions:
REMARK  status: ('A' for Active; 'I' for Inactive)
REMARK    1  A    between atoms: _1  and  _3
REMARK    2  A    between atoms: _3  and  _4
REMARK    3  A    between atoms: _3  and  _6
REMARK    4  A    between atoms: _6  and  _7
REMARK    5  A    between atoms: _7  and  _8
REMARK    6  A    between atoms: _8  and  _9
REMARK    7  A    between atoms: _9  and  _10
REMARK    8  A    between atoms: _14  and  _16
REMARK    9  A    between atoms: _16  and  _17
REMARK   10  A    between atoms: _16  and  _19
REMARK   11  A    between atoms: _19  and  _20
REMARK   12  A    between atoms: _23  and  _25
REMARK   13  A    between atoms: _25  and  _26
REMARK   14  A    between atoms: _25  and  _28
REMARK   15  A    between atoms: _28  and  _29
REMARK   16  A    between atoms: _32  and  _34
REMARK   17  A    between atoms: _34  and  _35
REMARK   18  A    between atoms: _34  and  _37
REMARK   19  A    between atoms: _37  and  _38
REMARK   20  A    between atoms: _38  and  _39
REMARK   21  A    between atoms: _39  and  _40
REMARK   22  A    between atoms: _49  and  _51
REMARK   23  A    between atoms: _51  and  _52
REMARK   24  A    between atoms: _55  and  _57
REMARK   25  A    between atoms: _57  and  _58
REMARK   26  A    between atoms: _57  and  _60
REMARK   27  A    between atoms: _60  and  _61
REMARK   28  A    between atoms: _64  and  _66
REMARK   29  A    between atoms: _66  and  _67
REMARK   30  A    between atoms: _66  and  _69
REMARK   31  A    between atoms: _69  and  _70
REMARK   32  A    between atoms: _73  and  _75
REMARK   33  A    between atoms: _75  and  _76
REMARK   34  A    between atoms: _79  and  _81
REMARK   35  A    between atoms: _81  and  _82
REMARK   36  A    between atoms: _81  and  _84
REMARK   37  A    between atoms: _84  and  _85
REMARK   38  A    between atoms: _85  and  _86
REMARK   39  A    between atoms: _88  and  _90
REMARK   40  A    between atoms: _90  and  _91
REMARK   41  A    between atoms: _90  and  _93
REMARK   42  A    between atoms: _93  and  _94
REMARK   43  A    between atoms: _97  and  _99
REMARK   44  A    between atoms: _99  and  _100
REMARK   45  A    between atoms: _99  and  _102
REMARK   46  A    between atoms: _102  and  _103
REMARK   47  A    between atoms: _106  and  _108
REMARK   48  A    between atoms: _108  and  _109
REMARK   49  A    between atoms: _108  and  _111
REMARK   50  A    between atoms: _111  and  _112
REMARK   51  A    between atoms: _122  and  _124
REMARK   52  A    between atoms: _124  and  _125
REMARK   53  A    between atoms: _124  and  _127
REMARK   54  A    between atoms: _127  and  _128
REMARK   55  A    between atoms: _128  and  _129
REMARK   56  A    between atoms: _131  and  _133
REMARK   57  A    between atoms: _133  and  _134
REMARK   58  A    between atoms: _133  and  _136
REMARK   59  A    between atoms: _136  and  _137
REMARK   60  A    between atoms: _140  and  _142
REMARK   61  A    between atoms: _142  and  _143
REMARK   62  A    between atoms: _142  and  _145
REMARK   63  A    between atoms: _145  and  _146
REMARK   64  A    between atoms: _149  and  _151
REMARK   65  A    between atoms: _151  and  _152
REMARK   66  A    between atoms: _151  and  _154
REMARK   67  A    between atoms: _154  and  _155
REMARK   68  A    between atoms: _155  and  _156
REMARK   69  A    between atoms: _156  and  _157
REMARK   70  A    between atoms: _166  and  _168
REMARK   71  A    between atoms: _168  and  _169
REMARK   72  A    between atoms: _168  and  _171
REMARK   73  A    between atoms: _171  and  _172
REMARK   74  A    between atoms: _172  and  _173
REMARK   75  A    between atoms: _176  and  _178
REMARK   76  A    between atoms: _178  and  _179
REMARK   77  A    between atoms: _178  and  _181
REMARK   78  A    between atoms: _181  and  _182
REMARK   79  A    between atoms: _182  and  _183
REMARK   80  A    between atoms: _189  and  _190
REMARK   81  A    between atoms: _195  and  _197
REMARK   82  A    between atoms: _197  and  _198
REMARK   83  A    between atoms: _197  and  _200
REMARK   84  A    between atoms: _200  and  _201
REMARK   85  A    between atoms: _204  and  _206
REMARK   86  A    between atoms: _206  and  _207
REMARK   87  A    between atoms: _209  and  _211
REMARK   88  A    between atoms: _211  and  _212
REMARK   89  A    between atoms: _214  and  _216
REMARK   90  A    between atoms: _216  and  _217
REMARK   91  A    between atoms: _216  and  _219
REMARK   92  A    between atoms: _219  and  _220
REMARK   93  A    between atoms: _230  and  _232
REMARK   94  A    between atoms: _232  and  _233
REMARK   95  A    between atoms: _232  and  _235
REMARK   96  A    between atoms: _235  and  _236
REMARK   97  A    between atoms: _236  and  _237
REMARK   98  A    between atoms: _237  and  _238
REMARK   99  A    between atoms: _238  and  _239
REMARK  100  A    between atoms: _243  and  _245
REMARK  101  A    between atoms: _245  and  _246
REMARK  102  A    between atoms: _249  and  _251
REMARK  103  A    between atoms: _251  and  _252
REMARK  104  A    between atoms: _251  and  _254
REMARK  105  A    between atoms: _254  and  _255
REMARK  106  A    between atoms: _260  and  _262
REMARK  107  A    between atoms: _262  and  _263
REMARK  108  A    between atoms: _262  and  _265
REMARK  109  A    between atoms: _265  and  _266
REMARK  110  A    between atoms: _266  and  _267
REMARK  111  A    between atoms: _267  and  _268
REMARK  112  A    between atoms: _277  and  _279
REMARK  113  A    between atoms: _279  and  _280
REMARK  114  A    between atoms: _279  and  _282
REMARK  115  A    between atoms: _282  and  _283
REMARK  116  A    between atoms: _286  and  _288
REMARK  117  A    between atoms: _288  and  _289
REMARK  118  A    between atoms: _288  and  _291
REMARK  119  A    between atoms: _291  and  _292
REMARK  120  A    between atoms: _295  and  _297
REMARK  121  A    between atoms: _297  and  _298
REMARK  122  A    between atoms: _297  and  _300
REMARK  123  A    between atoms: _300  and  _301
REMARK  124  A    between atoms: _304  and  _306
REMARK  125  A    between atoms: _306  and  _307
REMARK  126  A    between atoms: _306  and  _309
REMARK  127  A    between atoms: _309  and  _310
REMARK  128  A    between atoms: _313  and  _315
REMARK  129  A    between atoms: _315  and  _316
REMARK  130  A    between atoms: _315  and  _318
REMARK  131  A    between atoms: _318  and  _319
REMARK  132  A    between atoms: _319  and  _320
REMARK  133  A    between atoms: _322  and  _324
REMARK  134  A    between atoms: _324  and  _325
REMARK  135  A    between atoms: _324  and  _327
REMARK  136  A    between atoms: _327  and  _328
REMARK  137  A    between atoms: _331  and  _333
REMARK  138  A    between atoms: _333  and  _334
REMARK  139  A    between atoms: _333  and  _336
REMARK  140  A    between atoms: _338  and  _340
REMARK  141  A    between atoms: _340  and  _341
REMARK  142  A    between atoms: _340  and  _343
REMARK  143  A    between atoms: _343  and  _344
REMARK  144  A    between atoms: _344  and  _345
REMARK  145  A    between atoms: _345  and  _346
REMARK  146  A    between atoms: _355  and  _357
REMARK  147  A    between atoms: _357  and  _358
REMARK  148  A    between atoms: _360  and  _362
REMARK  149  A    between atoms: _362  and  _363
REMARK  150  A    between atoms: _362  and  _365
REMARK  151  A    between atoms: _365  and  _366
REMARK                            x       y       z     vdW  Elec       q    Type
REMARK                         _______ _______ _______ _____ _____    ______ ____
ROOT
ATOM      1  CB  ARG A   1      79.315  -6.680  42.142  0.00  0.00    +0.030 C 
ENDROOT
BRANCH   1   2
ATOM      2  CA  ARG A   1      78.895  -7.874  43.001  0.00  0.00    +0.145 C 
BRANCH   2   3
ATOM      3  C   ARG A   1      78.040  -7.388  44.161  0.00  0.00    +0.238 C 
ATOM      4  N   ALA A   2      78.696  -7.116  45.284  0.00  0.00    -0.298 N 
ATOM      5  H   ALA A   2      79.719  -7.301  45.322  0.00  0.00    +0.150 HD
ATOM      6  O   ARG A   1      76.817  -7.278  44.046  0.00  0.00    -0.274 OA
BRANCH   4   7
ATOM      7  CA  ALA A   2      78.040  -6.569  46.465  0.00  0.00    +0.137 C 
ATOM      8  CB  ALA A   2      79.043  -6.438  47.595  0.00  0.00    +0.030 C 
BRANCH   7   9
ATOM      9  C   ALA A   2      77.412  -5.210  46.136  0.00  0.00    +0.227 C 
ATOM     10  O   ALA A   2      77.835  -4.522  45.194  0.00  0.00    -0.286 OA
ENDBRANCH   7   9
ENDBRANCH   4   7
ENDBRANCH   2   3
BRANCH   2  11
ATOM     11  N   ARG A   1      78.148  -8.861  42.218  0.00  0.00    -0.238 NA
ATOM     12  H   ARG A   1      77.157  -8.665  41.972  0.00  0.00    +0.142 HD
ENDBRANCH   2  11
ENDBRANCH   1   2
BRANCH   1  13
ATOM     13  CG  ARG A   1      80.087  -7.030  40.855  0.00  0.00    +0.045 C 
BRANCH  13  14
ATOM     14  CD  ARG A   1      81.579  -7.252  41.047  0.00  0.00    +0.174 C 
BRANCH  14  15
ATOM     15  NE  ARG A   1      82.287  -5.988  41.230  0.00  0.00    -0.265 N 
ATOM     16  HE  ARG A   1      82.698  -5.804  42.167  0.00  0.00    +0.259 HD
ATOM     17  CZ  ARG A   1      82.452  -5.043  40.290  0.00  0.00    +0.342 C 
ATOM     18  NH2 ARG A   1      83.096  -3.941  40.612  0.00  0.00    -0.292 N 
ATOM     19 HH21 ARG A   1      83.464  -3.817  41.577  0.00  0.00    +0.255 HD
ATOM     20 HH22 ARG A   1      83.237  -3.194  39.902  0.00  0.00    +0.255 HD
ATOM     21  NH1 ARG A   1      81.965  -5.155  39.042  0.00  0.00    -0.292 N 
ATOM     22 HH11 ARG A   1      81.431  -6.004  38.766  0.00  0.00    +0.255 HD
ATOM     23 HH12 ARG A   1      82.122  -4.393  38.352  0.00  0.00    +0.255 HD
ENDBRANCH  14  15
ENDBRANCH  13  14
ENDBRANCH   1  13
TORSDOF 8
REMARK  Name = ../refined-set-2016/2bo4/2bo4_pocket.pdb
REMARK  151 active torsions:
REMARK  status: ('A' for Active; 'I' for Inactive)
REMARK    1  A    between atoms: _1  and  _3
REMARK    2  A    between atoms: _3  and  _4
REMARK    3  A    between atoms: _3  and  _6
REMARK    4  A    between atoms: _6  and  _7
REMARK    5  A    between atoms: _7  and  _8
REMARK    6  A    between atoms: _8  and  _9
REMARK    7  A    between atoms: _9  and  _10
REMARK    8  A    between atoms: _14  and  _16
REMARK    9  A    between atoms: _16  and  _17
REMARK   10  A    between atoms: _16  and  _19
REMARK   11  A    between atoms: _19  and  _20
REMARK   12  A    between atoms: _23  and  _25
REMARK   13  A    between atoms: _25  and  _26
REMARK   14  A    between atoms: _25  and  _28
REMARK   15  A    between atoms: _28  and  _29
REMARK   16  A    between atoms: _32  and  _34
REMARK   17  A    between atoms: _34  and  _35
REMARK   18  A    between atoms: _34  and  _37
REMARK   19  A    between atoms: _37  and  _38
REMARK   20  A    between atoms: _38  and  _39
REMARK   21  A    between atoms: _39  and  _40
REMARK   22  A    between atoms: _49  and  _51
REMARK   23  A    between atoms: _51  and  _52
REMARK   24  A    between atoms: _55  and  _57
REMARK   25  A    between atoms: _57  and  _58
REMARK   26  A    between atoms: _57  and  _60
REMARK   27  A    between atoms: _60  and  _61
REMARK   28  A    between atoms: _64  and  _66
REMARK   29  A    between atoms: _66  and  _67
REMARK   30  A    between atoms: _66  and  _69
REMARK   31  A    between atoms: _69  and  _70
REMARK   32  A    between atoms: _73  and  _75
REMARK   33  A    between atoms: _75  and  _76
REMARK   34  A    between atoms: _79  and  _81
REMARK   35  A    between atoms: _81  and  _82
REMARK   36  A    between atoms: _81  and  _84
REMARK   37  A    between atoms: _84  and  _85
REMARK   38  A    between atoms: _85  and  _86
REMARK   39  A    between atoms: _88  and  _90
REMARK   40  A    between atoms: _90  and  _91
REMARK   41  A    between atoms: _90  and  _93
REMARK   42  A    between atoms: _93  and  _94
REMARK   43  A    between atoms: _97  and  _99
REMARK   44  A    between atoms: _99  and  _100
REMARK   45  A    between atoms: _99  and  _102
REMARK   46  A    between atoms: _102  and  _103
REMARK   47  A    between atoms: _106  and  _108
REMARK   48  A    between atoms: _108  and  _109
REMARK   49  A    between atoms: _108  and  _111
REMARK   50  A    between atoms: _111  and  _112
REMARK   51  A    between atoms: _122  and  _124
REMARK   52  A    between atoms: _124  and  _125
REMARK   53  A    between atoms: _124  and  _127
REMARK   54  A    between atoms: _127  and  _128
REMARK   55  A    between atoms: _128  and  _129
REMARK   56  A    between atoms: _131  and  _133
REMARK   57  A    between atoms: _133  and  _134
REMARK   58  A    between atoms: _133  and  _136
REMARK   59  A    between atoms: _136  and  _137
REMARK   60  A    between atoms: _140  and  _142
REMARK   61  A    between atoms: _142  and  _143
REMARK   62  A    between atoms: _142  and  _145
REMARK   63  A    between atoms: _145  and  _146
REMARK   64  A    between atoms: _149  and  _151
REMARK   65  A    between atoms: _151  and  _152
REMARK   66  A    between atoms: _151  and  _154
REMARK   67  A    between atoms: _154  and  _155
REMARK   68  A    between atoms: _155  and  _156
REMARK   69  A    between atoms: _156  and  _157
REMARK   70  A    between atoms: _166  and  _168
REMARK   71  A    between atoms: _168  and  _169
REMARK   72  A    between atoms: _168  and  _171
REMARK   73  A    between atoms: _171  and  _172
REMARK   74  A    between atoms: _172  and  _173
REMARK   75  A    between atoms: _176  and  _178
REMARK   76  A    between atoms: _178  and  _179
REMARK   77  A    between atoms: _178  and  _181
REMARK   78  A    between atoms: _181  and  _182
REMARK   79  A    between atoms: _182  and  _183
REMARK   80  A    between atoms: _189  and  _190
REMARK   81  A    between atoms: _195  and  _197
REMARK   82  A    between atoms: _197  and  _198
REMARK   83  A    between atoms: _197  and  _200
REMARK   84  A    between atoms: _200  and  _201
REMARK   85  A    between atoms: _204  and  _206
REMARK   86  A    between atoms: _206  and  _207
REMARK   87  A    between atoms: _209  and  _211
REMARK   88  A    between atoms: _211  and  _212
REMARK   89  A    between atoms: _214  and  _216
REMARK   90  A    between atoms: _216  and  _217
REMARK   91  A    between atoms: _216  and  _219
REMARK   92  A    between atoms: _219  and  _220
REMARK   93  A    between atoms: _230  and  _232
REMARK   94  A    between atoms: _232  and  _233
REMARK   95  A    between atoms: _232  and  _235
REMARK   96  A    between atoms: _235  and  _236
REMARK   97  A    between atoms: _236  and  _237
REMARK   98  A    between atoms: _237  and  _238
REMARK   99  A    between atoms: _238  and  _239
REMARK  100  A    between atoms: _243  and  _245
REMARK  101  A    between atoms: _245  and  _246
REMARK  102  A    between atoms: _249  and  _251
REMARK  103  A    between atoms: _251  and  _252
REMARK  104  A    between atoms: _251  and  _254
REMARK  105  A    between atoms: _254  and  _255
REMARK  106  A    between atoms: _260  and  _262
REMARK  107  A    between atoms: _262  and  _263
REMARK  108  A    between atoms: _262  and  _265
REMARK  109  A    between atoms: _265  and  _266
REMARK  110  A    between atoms: _266  and  _267
REMARK  111  A    between atoms: _267  and  _268
REMARK  112  A    between atoms: _277  and  _279
REMARK  113  A    between atoms: _279  and  _280
REMARK  114  A    between atoms: _279  and  _282
REMARK  115  A    between atoms: _282  and  _283
REMARK  116  A    between atoms: _286  and  _288
REMARK  117  A    between atoms: _288  and  _289
REMARK  118  A    between atoms: _288  and  _291
REMARK  119  A    between atoms: _291  and  _292
REMARK  120  A    between atoms: _295  and  _297
REMARK  121  A    between atoms: _297  and  _298
REMARK  122  A    between atoms: _297  and  _300
REMARK  123  A    between atoms: _300  and  _301
REMARK  124  A    between atoms: _304  and  _306
REMARK  125  A    between atoms: _306  and  _307
REMARK  126  A    between atoms: _306  and  _309
REMARK  127  A    between atoms: _309  and  _310
REMARK  128  A    between atoms: _313  and  _315
REMARK  129  A    between atoms: _315  and  _316
REMARK  130  A    between atoms: _315  and  _318
REMARK  131  A    between atoms: _318  and  _319
REMARK  132  A    between atoms: _319  and  _320
REMARK  133  A    between atoms: _322  and  _324
REMARK  134  A    between atoms: _324  and  _325
REMARK  135  A    between atoms: _324  and  _327
REMARK  136  A    between atoms: _327  and  _328
REMARK  137  A    between atoms: _331  and  _333
REMARK  138  A    between atoms: _333  and  _334
REMARK  139  A    between atoms: _333  and  _336
REMARK  140  A    between atoms: _338  and  _340
REMARK  141  A    between atoms: _340  and  _341
REMARK  142  A    between atoms: _340  and  _343
REMARK  143  A    between atoms: _343  and  _344
REMARK  144  A    between atoms: _344  and  _345
REMARK  145  A    between atoms: _345  and  _346
REMARK  146  A    between atoms: _355  and  _357
REMARK  147  A    between atoms: _357  and  _358
REMARK  148  A    between atoms: _360  and  _362
REMARK  149  A    between atoms: _362  and  _363
REMARK  150  A    between atoms: _362  and  _365
REMARK  151  A    between atoms: _365  and  _366
REMARK                            x       y       z     vdW  Elec       q    Type
REMARK                         _______ _______ _______ _____ _____    ______ ____
ROOT
ATOM      1  CA  TRP A   7      77.395   2.295  38.341  0.00  0.00    +0.153 C 
ENDROOT
BRANCH   1   3
ATOM      2  C   THR A   6      79.473   1.754  37.231  0.00  0.00    +0.243 C 
ATOM      3  N   TRP A   7      78.785   1.846  38.360  0.00  0.00    -0.297 N 
ATOM      4  H   TRP A   7      79.237   1.597  39.263  0.00  0.00    +0.150 HD
ATOM      5  O   THR A   6      79.042   2.185  36.168  0.00  0.00    -0.273 OA
BRANCH   2   6
ATOM      6  CA  THR A   6      80.860   1.108  37.309  0.00  0.00    +0.176 C 
BRANCH   6   8
ATOM      7  C   ILE A   5      81.759   3.046  38.511  0.00  0.00    +0.241 C 
ATOM      8  N   THR A   6      81.672   1.730  38.357  0.00  0.00    -0.295 N 
ATOM      9  H   THR A   6      82.202   1.116  39.007  0.00  0.00    +0.150 HD
ATOM     10  O   ILE A   5      81.224   3.847  37.748  0.00  0.00    -0.273 OA
BRANCH   7  11
ATOM     11  CA  ILE A   5      82.562   3.537  39.708  0.00  0.00    +0.149 C 
BRANCH  11  14
ATOM     12  C   MET A   4      80.967   3.188  41.465  0.00  0.00    +0.241 C 
ATOM     13  O   MET A   4      80.328   4.181  41.091  0.00  0.00    -0.273 OA
ATOM     14  N   ILE A   5      82.123   2.849  40.911  0.00  0.00    -0.297 N 
ATOM     15  H   ILE A   5      82.709   2.100  41.332  0.00  0.00    +0.150 HD
BRANCH  12  16
ATOM     16  CA  MET A   4      80.406   2.275  42.569  0.00  0.00    +0.149 C 
BRANCH  16  18
ATOM     17  C   ALA A   3      80.493   0.039  41.612  0.00  0.00    +0.241 C 
ATOM     18  N   MET A   4      80.913   0.903  42.529  0.00  0.00    -0.297 N 
ATOM     19  H   MET A   4      81.616   0.598  43.232  0.00  0.00    +0.150 HD
ATOM     20  O   ALA A   3      79.690   0.347  40.743  0.00  0.00    -0.273 OA
BRANCH  17  21
ATOM     21  CA  ALA A   3      81.090  -1.365  41.663  0.00  0.00    +0.149 C 
ATOM     22  CB  ALA A   3      80.167  -2.392  40.987  0.00  0.00    +0.031 C 
BRANCH  21  25
ATOM     23  C   ASP A   2      80.465  -1.892  43.975  0.00  0.00    +0.241 C 
ATOM     24  O   ASP A   2      79.280  -1.546  43.838  0.00  0.00    -0.273 OA
ATOM     25  N   ALA A   3      81.383  -1.776  43.022  0.00  0.00    -0.297 N 
ATOM     26  H   ALA A   3      82.371  -1.993  43.265  0.00  0.00    +0.150 HD
BRANCH  23  27
ATOM     27  CA  ASP A   2      80.974  -2.492  45.284  0.00  0.00    +0.160 C 
BRANCH  27  30
ATOM     28  C   THR A   1      79.797  -1.451  47.161  0.00  0.00    +0.241 C 
ATOM     29  O   THR A   1      80.730  -0.697  47.462  0.00  0.00    -0.274 OA
ATOM     30  N   ASP A   2      79.906  -2.441  46.272  0.00  0.00    -0.297 N 
ATOM     31  H   ASP A   2      79.201  -3.205  46.286  0.00  0.00    +0.150 HD
BRANCH  28  32
ATOM     32  CA  THR A   1      78.427  -1.278  47.823  0.00  0.00    +0.172 C 
BRANCH  32  33
ATOM     33  N   THR A   1      77.535  -2.429  47.630  0.00  0.00    -0.236 NA
ATOM     34  H   THR A   1      77.722  -3.315  48.142  0.00  0.00    +0.142 HD
ENDBRANCH  32  33
BRANCH  32  35
ATOM     35  CB  THR A   1      78.584  -0.943  49.303  0.00  0.00    +0.135 C 
ATOM     36  CG2 THR A   1      77.274  -0.390  49.874  0.00  0.00    +0.034 C 
BRANCH  35  37
ATOM     37  OG1 THR A   1      78.827  -2.136  50.049  0.00  0.00    -0.383 OA
ATOM     38  HG1 THR A   1      78.065  -2.757  49.934  0.00  0.00    +0.210 HD
ENDBRANCH  35  37
ENDBRANCH  32  35
ENDBRANCH  28  32
ENDBRANCH  27  30
BRANCH  27  39
ATOM     39  CB  ASP A   2      81.425  -3.941  45.022  0.00  0.00    +0.143 C 
BRANCH  39  40
ATOM     40  CG  ASP A   2      82.289  -4.511  46.141  0.00  0.00    +0.367 C 
ATOM     41  OD2 ASP A   2      83.010  -3.756  46.831  0.00  0.00    -0.246 OA
ATOM     42  OD1 ASP A   2      82.325  -5.722  46.395  0.00  0.00    -0.246 OA
ENDBRANCH  39  40
ENDBRANCH  27  39
ENDBRANCH  23  27
ENDBRANCH  21  25
ENDBRANCH  17  21
ENDBRANCH  16  18
BRANCH  16  43
ATOM     43  CB  MET A   4      80.609   2.872  43.946  0.00  0.00    +0.041 C 
BRANCH  43  44
ATOM     44  CG  MET A   4      79.727   2.225  45.005  0.00  0.00    +0.060 C 
BRANCH  44  45
ATOM     45  SD  MET A   4      77.979   2.620  44.831  0.00  0.00    -0.139 S 
ATOM     46  CE  MET A   4      77.339   1.170  43.938  0.00  0.00    +0.069 C 
ENDBRANCH  44  45
ENDBRANCH  43  44
ENDBRANCH  16  43
ENDBRANCH  12  16
ENDBRANCH  11  14
BRANCH  11  47
ATOM     47  CB  ILE A   5      84.086   3.392  39.453  0.00  0.00    +0.027 C 
ATOM     48  CG2 ILE A   5      84.474   4.158  38.187  0.00  0.00    +0.002 C 
BRANCH  47  49
ATOM     49  CG1 ILE A   5      84.870   3.918  40.645  0.00  0.00    +0.002 C 
ATOM     50  CD1 ILE A   5      86.346   3.721  40.534  0.00  0.00    +0.000 C 
ENDBRANCH  47  49
ENDBRANCH  11  47
ENDBRANCH   7  11
ENDBRANCH   6   8
BRANCH   6  51
ATOM     51  CB  THR A   6      80.737  -0.399  37.561  0.00  0.00    +0.137 C 
ATOM     52  CG2 THR A   6      79.689  -1.058  36.632  0.00  0.00    +0.034 C 
BRANCH  51  53
ATOM     53  OG1 THR A   6      81.959  -1.057  37.218  0.00  0.00    -0.382 OA
ATOM     54  HG1 THR A   6      82.695  -0.694  37.772  0.00  0.00    +0.210 HD
ENDBRANCH  51  53
ENDBRANCH   6  51
ENDBRANCH   2   6
ENDBRANCH   1   3
BRANCH   1  55
ATOM     55  C   TRP A   7      77.264   3.814  38.244  0.00  0.00    +0.241 C 
ATOM     56  N   MET A   8      77.955   4.536  39.118  0.00  0.00    -0.297 N 
ATOM     57  H   MET A   8      78.650   4.060  39.728  0.00  0.00    +0.150 HD
ATOM     58  O   TRP A   7      76.526   4.314  37.398  0.00  0.00    -0.273 OA
BRANCH  56  59
ATOM     59  CA  MET A   8      77.767   5.987  39.249  0.00  0.00    +0.149 C 
BRANCH  59  60
ATOM     60  C   MET A   8      78.558   6.826  38.264  0.00  0.00    +0.241 C 
ATOM     61  O   MET A   8      78.247   8.004  38.085  0.00  0.00    -0.273 OA
ATOM     62  N   ILE A   9      79.556   6.232  37.604  0.00  0.00    -0.297 N 
ATOM     63  H   ILE A   9      79.745   5.224  37.778  0.00  0.00    +0.150 HD
BRANCH  62  64
ATOM     64  CA  ILE A   9      80.383   6.948  36.654  0.00  0.00    +0.149 C 
BRANCH  64  65
ATOM     65  C   ILE A   9      80.189   6.397  35.241  0.00  0.00    +0.241 C 
ATOM     66  N   THR A  10      80.481   5.121  35.037  0.00  0.00    -0.295 N 
ATOM     67  H   THR A  10      80.652   4.497  35.851  0.00  0.00    +0.150 HD
ATOM     68  O   ILE A   9      79.759   7.116  34.347  0.00  0.00    -0.273 OA
BRANCH  66  69
ATOM     69  CA  THR A  10      80.566   4.577  33.679  0.00  0.00    +0.176 C 
BRANCH  69  70
ATOM     70  C   THR A  10      79.202   4.311  33.046  0.00  0.00    +0.243 C 
ATOM     71  N   ARG A  11      78.404   3.493  33.703  0.00  0.00    -0.298 N 
ATOM     72  H   ARG A  11      78.736   3.061  34.589  0.00  0.00    +0.150 HD
ATOM     73  O   THR A  10      78.876   4.845  31.987  0.00  0.00    -0.273 OA
BRANCH  71  74
ATOM     74  CA  ARG A  11      77.066   3.181  33.214  0.00  0.00    +0.137 C 
BRANCH  74  75
ATOM     75  C   ARG A  11      76.147   4.404  33.244  0.00  0.00    +0.227 C 
ATOM     76  O   ARG A  11      75.392   4.610  32.309  0.00  0.00    -0.286 OA
ENDBRANCH  74  75
BRANCH  74  77
ATOM     77  CB  ARG A  11      76.463   2.012  33.974  0.00  0.00    +0.031 C 
BRANCH  77  78
ATOM     78  CG  ARG A  11      77.241   0.716  33.724  0.00  0.00    +0.045 C 
BRANCH  78  79
ATOM     79  CD  ARG A  11      76.564  -0.526  34.231  0.00  0.00    +0.174 C 
BRANCH  79  80
ATOM     80  NE  ARG A  11      75.426  -0.877  33.392  0.00  0.00    -0.265 N 
ATOM     81  CZ  ARG A  11      74.653  -1.934  33.591  0.00  0.00    +0.342 C 
ATOM     82  NH2 ARG A  11      74.884  -2.755  34.606  0.00  0.00    -0.292 N 
ATOM     83 HH21 ARG A  11      75.677  -2.571  35.253  0.00  0.00    +0.255 HD
ATOM     84 HH22 ARG A  11      74.272  -3.583  34.755  0.00  0.00    +0.255 HD
ATOM     85  NH1 ARG A  11      73.639  -2.171  32.785  0.00  0.00    -0.292 N 
ATOM     86 HH11 ARG A  11      73.033  -3.001  32.942  0.00  0.00    +0.255 HD
ATOM     87 HH12 ARG A  11      73.444  -1.528  31.991  0.00  0.00    +0.255 HD
ATOM     88  HE  ARG A  11      75.207  -0.258  32.585  0.00  0.00    +0.259 HD
ENDBRANCH  79  80
ENDBRANCH  78  79
ENDBRANCH  77  78
ENDBRANCH  74  77
ENDBRANCH  71  74
ENDBRANCH  69  70
BRANCH  69  89
ATOM     89  CB  THR A  10      81.410   3.296  33.704  0.00  0.00    +0.137 C 
ATOM     90  CG2 THR A  10      81.779   2.858  32.311  0.00  0.00    +0.034 C 
BRANCH  89  91
ATOM     91  OG1 THR A  10      82.665   3.576  34.330  0.00  0.00    -0.382 OA
ATOM     92  HG1 THR A  10      83.139   4.278  33.817  0.00  0.00    +0.210 HD
ENDBRANCH  89  91
ENDBRANCH  69  89
ENDBRANCH  66  69
ENDBRANCH  64  65
BRANCH  64  93
ATOM     93  CB  ILE A   9      81.878   6.890  37.089  0.00  0.00    +0.027 C 
ATOM     94  CG2 ILE A   9      82.778   7.467  36.016  0.00  0.00    +0.002 C 
BRANCH  93  95
ATOM     95  CG1 ILE A   9      82.084   7.599  38.443  0.00  0.00    +0.002 C 
ATOM     96  CD1 ILE A   9      81.924   9.131  38.424  0.00  0.00    +0.000 C 
ENDBRANCH  93  95
ENDBRANCH  64  93
ENDBRANCH  62  64
ENDBRANCH  59  60
BRANCH  59  97
ATOM     97  CB  MET A   8      78.060   6.444  40.677  0.00  0.00    +0.041 C 
BRANCH  97  98
ATOM     98  CG  MET A   8      77.236   5.726  41.741  0.00  0.00    +0.060 C 
BRANCH  98  99
ATOM     99  SD  MET A   8      75.461   5.757  41.440  0.00  0.00    -0.139 S 
ATOM    100  CE  MET A   8      74.893   4.836  42.830  0.00  0.00    +0.069 C 
ENDBRANCH  98  99
ENDBRANCH  97  98
ENDBRANCH  59  97
ENDBRANCH  56  59
ENDBRANCH   1  55
BRANCH   1 101
ATOM    101  CB  TRP A   7      76.633   1.774  39.559  0.00  0.00    +0.057 C 
BRANCH 101 102
ATOM    102  CG  TRP A   7      76.193   0.344  39.414  0.00  0.00    -0.002 A 
ATOM    103  CD1 TRP A   7      76.745  -0.743  40.021  0.00  0.00    +0.068 A 
ATOM    104  NE1 TRP A   7      76.079  -1.887  39.648  0.00  0.00    -0.352 N 
ATOM    105  HE1 TRP A   7      76.305  -2.848  39.974  0.00  0.00    +0.166 HD
ATOM    106  CE2 TRP A   7      75.072  -1.561  38.779  0.00  0.00    +0.056 A 
ATOM    107  CZ2 TRP A   7      74.118  -2.378  38.153  0.00  0.00    +0.017 A 
ATOM    108  CH2 TRP A   7      73.207  -1.770  37.336  0.00  0.00    +0.001 A 
ATOM    109  CZ3 TRP A   7      73.221  -0.376  37.133  0.00  0.00    +0.000 A 
ATOM    110  CE3 TRP A   7      74.165   0.435  37.762  0.00  0.00    +0.001 A 
ATOM    111  CD2 TRP A   7      75.107  -0.158  38.611  0.00  0.00    +0.013 A 
ENDBRANCH 101 102
ENDBRANCH   1 101
TORSDOF 46
REMARK  Name = ../refined-set-2016/2bo4/2bo4_pocket.pdb
REMARK  151 active torsions:
REMARK  status: ('A' for Active; 'I' for Inactive)
REMARK    1  A    between atoms: _1  and  _3
REMARK    2  A    between atoms: _3  and  _4
REMARK    3  A    between atoms: _3  and  _6
REMARK    4  A    between atoms: _6  and  _7
REMARK    5  A    between atoms: _7  and  _8
REMARK    6  A    between atoms: _8  and  _9
REMARK    7  A    between atoms: _9  and  _10
REMARK    8  A    between atoms: _14  and  _16
REMARK    9  A    between atoms: _16  and  _17
REMARK   10  A    between atoms: _16  and  _19
REMARK   11  A    between atoms: _19  and  _20
REMARK   12  A    between atoms: _23  and  _25
REMARK   13  A    between atoms: _25  and  _26
REMARK   14  A    between atoms: _25  and  _28
REMARK   15  A    between atoms: _28  and  _29
REMARK   16  A    between atoms: _32  and  _34
REMARK   17  A    between atoms: _34  and  _35
REMARK   18  A    between atoms: _34  and  _37
REMARK   19  A    between atoms: _37  and  _38
REMARK   20  A    between atoms: _38  and  _39
REMARK   21  A    between atoms: _39  and  _40
REMARK   22  A    between atoms: _49  and  _51
REMARK   23  A    between atoms: _51  and  _52
REMARK   24  A    between atoms: _55  and  _57
REMARK   25  A    between atoms: _57  and  _58
REMARK   26  A    between atoms: _57  and  _60
REMARK   27  A    between atoms: _60  and  _61
REMARK   28  A    between atoms: _64  and  _66
REMARK   29  A    between atoms: _66  and  _67
REMARK   30  A    between atoms: _66  and  _69
REMARK   31  A    between atoms: _69  and  _70
REMARK   32  A    between atoms: _73  and  _75
REMARK   33  A    between atoms: _75  and  _76
REMARK   34  A    between atoms: _79  and  _81
REMARK   35  A    between atoms: _81  and  _82
REMARK   36  A    between atoms: _81  and  _84
REMARK   37  A    between atoms: _84  and  _85
REMARK   38  A    between atoms: _85  and  _86
REMARK   39  A    between atoms: _88  and  _90
REMARK   40  A    between atoms: _90  and  _91
REMARK   41  A    between atoms: _90  and  _93
REMARK   42  A    between atoms: _93  and  _94
REMARK   43  A    between atoms: _97  and  _99
REMARK   44  A    between atoms: _99  and  _100
REMARK   45  A    between atoms: _99  and  _102
REMARK   46  A    between atoms: _102  and  _103
REMARK   47  A    between atoms: _106  and  _108
REMARK   48  A    between atoms: _108  and  _109
REMARK   49  A    between atoms: _108  and  _111
REMARK   50  A    between atoms: _111  and  _112
REMARK   51  A    between atoms: _122  and  _124
REMARK   52  A    between atoms: _124  and  _125
REMARK   53  A    between atoms: _124  and  _127
REMARK   54  A    between atoms: _127  and  _128
REMARK   55  A    between atoms: _128  and  _129
REMARK   56  A    between atoms: _131  and  _133
REMARK   57  A    between atoms: _133  and  _134
REMARK   58  A    between atoms: _133  and  _136
REMARK   59  A    between atoms: _136  and  _137
REMARK   60  A    between atoms: _140  and  _142
REMARK   61  A    between atoms: _142  and  _143
REMARK   62  A    between atoms: _142  and  _145
REMARK   63  A    between atoms: _145  and  _146
REMARK   64  A    between atoms: _149  and  _151
REMARK   65  A    between atoms: _151  and  _152
REMARK   66  A    between atoms: _151  and  _154
REMARK   67  A    between atoms: _154  and  _155
REMARK   68  A    between atoms: _155  and  _156
REMARK   69  A    between atoms: _156  and  _157
REMARK   70  A    between atoms: _166  and  _168
REMARK   71  A    between atoms: _168  and  _169
REMARK   72  A    between atoms: _168  and  _171
REMARK   73  A    between atoms: _171  and  _172
REMARK   74  A    between atoms: _172  and  _173
REMARK   75  A    between atoms: _176  and  _178
REMARK   76  A    between atoms: _178  and  _179
REMARK   77  A    between atoms: _178  and  _181
REMARK   78  A    between atoms: _181  and  _182
REMARK   79  A    between atoms: _182  and  _183
REMARK   80  A    between atoms: _189  and  _190
REMARK   81  A    between atoms: _195  and  _197
REMARK   82  A    between atoms: _197  and  _198
REMARK   83  A    between atoms: _197  and  _200
REMARK   84  A    between atoms: _200  and  _201
REMARK   85  A    between atoms: _204  and  _206
REMARK   86  A    between atoms: _206  and  _207
REMARK   87  A    between atoms: _209  and  _211
REMARK   88  A    between atoms: _211  and  _212
REMARK   89  A    between atoms: _214  and  _216
REMARK   90  A    between atoms: _216  and  _217
REMARK   91  A    between atoms: _216  and  _219
REMARK   92  A    between atoms: _219  and  _220
REMARK   93  A    between atoms: _230  and  _232
REMARK   94  A    between atoms: _232  and  _233
REMARK   95  A    between atoms: _232  and  _235
REMARK   96  A    between atoms: _235  and  _236
REMARK   97  A    between atoms: _236  and  _237
REMARK   98  A    between atoms: _237  and  _238
REMARK   99  A    between atoms: _238  and  _239
REMARK  100  A    between atoms: _243  and  _245
REMARK  101  A    between atoms: _245  and  _246
REMARK  102  A    between atoms: _249  and  _251
REMARK  103  A    between atoms: _251  and  _252
REMARK  104  A    between atoms: _251  and  _254
REMARK  105  A    between atoms: _254  and  _255
REMARK  106  A    between atoms: _260  and  _262
REMARK  107  A    between atoms: _262  and  _263
REMARK  108  A    between atoms: _262  and  _265
REMARK  109  A    between atoms: _265  and  _266
REMARK  110  A    between atoms: _266  and  _267
REMARK  111  A    between atoms: _267  and  _268
REMARK  112  A    between atoms: _277  and  _279
REMARK  113  A    between atoms: _279  and  _280
REMARK  114  A    between atoms: _279  and  _282
REMARK  115  A    between atoms: _282  and  _283
REMARK  116  A    between atoms: _286  and  _288
REMARK  117  A    between atoms: _288  and  _289
REMARK  118  A    between atoms: _288  and  _291
REMARK  119  A    between atoms: _291  and  _292
REMARK  120  A    between atoms: _295  and  _297
REMARK  121  A    between atoms: _297  and  _298
REMARK  122  A    between atoms: _297  and  _300
REMARK  123  A    between atoms: _300  and  _301
REMARK  124  A    between atoms: _304  and  _306
REMARK  125  A    between atoms: _306  and  _307
REMARK  126  A    between atoms: _306  and  _309
REMARK  127  A    between atoms: _309  and  _310
REMARK  128  A    between atoms: _313  and  _315
REMARK  129  A    between atoms: _315  and  _316
REMARK  130  A    between atoms: _315  and  _318
REMARK  131  A    between atoms: _318  and  _319
REMARK  132  A    between atoms: _319  and  _320
REMARK  133  A    between atoms: _322  and  _324
REMARK  134  A    between atoms: _324  and  _325
REMARK  135  A    between atoms: _324  and  _327
REMARK  136  A    between atoms: _327  and  _328
REMARK  137  A    between atoms: _331  and  _333
REMARK  138  A    between atoms: _333  and  _334
REMARK  139  A    between atoms: _333  and  _336
REMARK  140  A    between atoms: _338  and  _340
REMARK  141  A    between atoms: _340  and  _341
REMARK  142  A    between atoms: _340  and  _343
REMARK  143  A    between atoms: _343  and  _344
REMARK  144  A    between atoms: _344  and  _345
REMARK  145  A    between atoms: _345  and  _346
REMARK  146  A    between atoms: _355  and  _357
REMARK  147  A    between atoms: _357  and  _358
REMARK  148  A    between atoms: _360  and  _362
REMARK  149  A    between atoms: _362  and  _363
REMARK  150  A    between atoms: _362  and  _365
REMARK  151  A    between atoms: _365  and  _366
REMARK                            x       y       z     vdW  Elec       q    Type
REMARK                         _______ _______ _______ _____ _____    ______ ____
ROOT
ATOM      1  C   GLN A   2      81.524  -3.991  32.567  0.00  0.00    +0.244 C 
ATOM      2  N   PRO A   3      81.299  -2.734  32.194  0.00  0.00    -0.272 N 
ATOM      3  CD  PRO A   3      80.226  -1.854  32.689  0.00  0.00    +0.094 C 
ATOM      4  CG  PRO A   3      80.684  -0.494  32.279  0.00  0.00    +0.024 C 
ATOM      5  CB  PRO A   3      81.448  -0.700  31.018  0.00  0.00    +0.031 C 
ATOM      6  CA  PRO A   3      82.133  -2.062  31.196  0.00  0.00    +0.152 C 
ATOM      7  O   GLN A   2      82.479  -4.650  32.156  0.00  0.00    -0.273 OA
ENDROOT
BRANCH   6   8
ATOM      8  C   PRO A   3      83.583  -1.880  31.612  0.00  0.00    +0.241 C 
ATOM      9  N   LEU A   4      83.873  -1.957  32.906  0.00  0.00    -0.297 N 
ATOM     10  H   LEU A   4      83.095  -2.108  33.580  0.00  0.00    +0.150 HD
ATOM     11  O   PRO A   3      84.413  -1.649  30.733  0.00  0.00    -0.273 OA
BRANCH   9  12
ATOM     12  CA  LEU A   4      85.228  -1.840  33.425  0.00  0.00    +0.149 C 
BRANCH  12  13
ATOM     13  C   LEU A   4      85.898  -3.197  33.624  0.00  0.00    +0.241 C 
ATOM     14  O   LEU A   4      87.046  -3.263  34.039  0.00  0.00    -0.273 OA
ATOM     15  N   GLY A   5      85.193  -4.280  33.337  0.00  0.00    -0.295 N 
ATOM     16  H   GLY A   5      84.255  -4.178  32.900  0.00  0.00    +0.150 HD
BRANCH  15  17
ATOM     17  CA  GLY A   5      85.706  -5.608  33.622  0.00  0.00    +0.176 C 
BRANCH  17  18
ATOM     18  C   GLY A   5      86.876  -5.989  32.727  0.00  0.00    +0.243 C 
ATOM     19  N   GLY A   6      87.909  -6.557  33.332  0.00  0.00    -0.296 N 
ATOM     20  H   GLY A   6      87.852  -6.735  34.355  0.00  0.00    +0.150 HD
ATOM     21  O   GLY A   5      86.831  -5.794  31.510  0.00  0.00    -0.273 OA
BRANCH  19  22
ATOM     22  CA  GLY A   6      89.116  -6.941  32.625  0.00  0.00    +0.163 C 
BRANCH  22  23
ATOM     23  C   GLY A   6      89.182  -8.412  32.236  0.00  0.00    +0.229 C 
ATOM     24  O   GLY A   6      90.251  -8.899  31.863  0.00  0.00    -0.286 OA
ENDBRANCH  22  23
ENDBRANCH  19  22
ENDBRANCH  17  18
ENDBRANCH  15  17
ENDBRANCH  12  13
BRANCH  12  25
ATOM     25  CB  LEU A   4      85.224  -1.084  34.762  0.00  0.00    +0.029 C 
BRANCH  25  26
ATOM     26  CG  LEU A   4      84.563   0.298  34.749  0.00  0.00    +0.002 C 
ATOM     27  CD2 LEU A   4      84.676   0.942  36.104  0.00  0.00    +0.000 C 
ATOM     28  CD1 LEU A   4      85.156   1.196  33.677  0.00  0.00    +0.000 C 
ENDBRANCH  25  26
ENDBRANCH  12  25
ENDBRANCH   9  12
ENDBRANCH   6   8
BRANCH   1  29
ATOM     29  CA  GLN A   2      80.511  -4.575  33.538  0.00  0.00    +0.149 C 
BRANCH  29  32
ATOM     30  C   GLU A   1      78.097  -4.532  33.273  0.00  0.00    +0.238 C 
ATOM     31  O   GLU A   1      77.962  -3.793  34.253  0.00  0.00    -0.274 OA
ATOM     32  N   GLN A   2      79.282  -4.930  32.828  0.00  0.00    -0.297 N 
ATOM     33  H   GLN A   2      79.338  -5.503  31.962  0.00  0.00    +0.150 HD
BRANCH  30  34
ATOM     34  CA  GLU A   1      76.881  -5.035  32.529  0.00  0.00    +0.145 C 
BRANCH  34  35
ATOM     35  N   GLU A   1      76.974  -4.888  31.082  0.00  0.00    -0.238 NA
ATOM     36  H   GLU A   1      77.030  -5.738  30.486  0.00  0.00    +0.142 HD
ENDBRANCH  34  35
BRANCH  34  37
ATOM     37  CB  GLU A   1      76.605  -6.488  32.905  0.00  0.00    +0.038 C 
BRANCH  37  38
ATOM     38  CG  GLU A   1      75.141  -6.856  32.724  0.00  0.00    +0.116 C 
BRANCH  38  39
ATOM     39  CD  GLU A   1      74.235  -5.975  33.569  0.00  0.00    +0.365 C 
ATOM     40  OE2 GLU A   1      74.450  -5.924  34.806  0.00  0.00    -0.246 OA
ATOM     41  OE1 GLU A   1      73.339  -5.303  32.989  0.00  0.00    -0.246 OA
ENDBRANCH  38  39
ENDBRANCH  37  38
ENDBRANCH  34  37
ENDBRANCH  30  34
ENDBRANCH  29  32
BRANCH  29  42
ATOM     42  CB  GLN A   2      81.022  -5.780  34.350  0.00  0.00    +0.039 C 
BRANCH  42  43
ATOM     43  CG  GLN A   2      80.252  -5.878  35.674  0.00  0.00    +0.087 C 
BRANCH  43  44
ATOM     44  CD  GLN A   2      80.250  -7.232  36.383  0.00  0.00    +0.219 C 
ATOM     45  NE2 GLN A   2      79.163  -7.504  37.104  0.00  0.00    -0.329 N 
ATOM     46 HE21 GLN A   2      79.099  -8.399  37.630  0.00  0.00    +0.145 HD
ATOM     47 HE22 GLN A   2      78.379  -6.822  37.140  0.00  0.00    +0.145 HD
ATOM     48  OE1 GLN A   2      81.201  -8.002  36.307  0.00  0.00    -0.275 OA
ENDBRANCH  43  44
ENDBRANCH  42  43
ENDBRANCH  29  42
ENDBRANCH   1  29
TORSDOF 19
REMARK  Name = ../refined-set-2016/2bo4/2bo4_pocket.pdb
REMARK  151 active torsions:
REMARK  status: ('A' for Active; 'I' for Inactive)
REMARK    1  A    between atoms: _1  and  _3
REMARK    2  A    between atoms: _3  and  _4
REMARK    3  A    between atoms: _3  and  _6
REMARK    4  A    between atoms: _6  and  _7
REMARK    5  A    between atoms: _7  and  _8
REMARK    6  A    between atoms: _8  and  _9
REMARK    7  A    between atoms: _9  and  _10
REMARK    8  A    between atoms: _14  and  _16
REMARK    9  A    between atoms: _16  and  _17
REMARK   10  A    between atoms: _16  and  _19
REMARK   11  A    between atoms: _19  and  _20
REMARK   12  A    between atoms: _23  and  _25
REMARK   13  A    between atoms: _25  and  _26
REMARK   14  A    between atoms: _25  and  _28
REMARK   15  A    between atoms: _28  and  _29
REMARK   16  A    between atoms: _32  and  _34
REMARK   17  A    between atoms: _34  and  _35
REMARK   18  A    between atoms: _34  and  _37
REMARK   19  A    between atoms: _37  and  _38
REMARK   20  A    between atoms: _38  and  _39
REMARK   21  A    between atoms: _39  and  _40
REMARK   22  A    between atoms: _49  and  _51
REMARK   23  A    between atoms: _51  and  _52
REMARK   24  A    between atoms: _55  and  _57
REMARK   25  A    between atoms: _57  and  _58
REMARK   26  A    between atoms: _57  and  _60
REMARK   27  A    between atoms: _60  and  _61
REMARK   28  A    between atoms: _64  and  _66
REMARK   29  A    between atoms: _66  and  _67
REMARK   30  A    between atoms: _66  and  _69
REMARK   31  A    between atoms: _69  and  _70
REMARK   32  A    between atoms: _73  and  _75
REMARK   33  A    between atoms: _75  and  _76
REMARK   34  A    between atoms: _79  and  _81
REMARK   35  A    between atoms: _81  and  _82
REMARK   36  A    between atoms: _81  and  _84
REMARK   37  A    between atoms: _84  and  _85
REMARK   38  A    between atoms: _85  and  _86
REMARK   39  A    between atoms: _88  and  _90
REMARK   40  A    between atoms: _90  and  _91
REMARK   41  A    between atoms: _90  and  _93
REMARK   42  A    between atoms: _93  and  _94
REMARK   43  A    between atoms: _97  and  _99
REMARK   44  A    between atoms: _99  and  _100
REMARK   45  A    between atoms: _99  and  _102
REMARK   46  A    between atoms: _102  and  _103
REMARK   47  A    between atoms: _106  and  _108
REMARK   48  A    between atoms: _108  and  _109
REMARK   49  A    between atoms: _108  and  _111
REMARK   50  A    between atoms: _111  and  _112
REMARK   51  A    between atoms: _122  and  _124
REMARK   52  A    between atoms: _124  and  _125
REMARK   53  A    between atoms: _124  and  _127
REMARK   54  A    between atoms: _127  and  _128
REMARK   55  A    between atoms: _128  and  _129
REMARK   56  A    between atoms: _131  and  _133
REMARK   57  A    between atoms: _133  and  _134
REMARK   58  A    between atoms: _133  and  _136
REMARK   59  A    between atoms: _136  and  _137
REMARK   60  A    between atoms: _140  and  _142
REMARK   61  A    between atoms: _142  and  _143
REMARK   62  A    between atoms: _142  and  _145
REMARK   63  A    between atoms: _145  and  _146
REMARK   64  A    between atoms: _149  and  _151
REMARK   65  A    between atoms: _151  and  _152
REMARK   66  A    between atoms: _151  and  _154
REMARK   67  A    between atoms: _154  and  _155
REMARK   68  A    between atoms: _155  and  _156
REMARK   69  A    between atoms: _156  and  _157
REMARK   70  A    between atoms: _166  and  _168
REMARK   71  A    between atoms: _168  and  _169
REMARK   72  A    between atoms: _168  and  _171
REMARK   73  A    between atoms: _171  and  _172
REMARK   74  A    between atoms: _172  and  _173
REMARK   75  A    between atoms: _176  and  _178
REMARK   76  A    between atoms: _178  and  _179
REMARK   77  A    between atoms: _178  and  _181
REMARK   78  A    between atoms: _181  and  _182
REMARK   79  A    between atoms: _182  and  _183
REMARK   80  A    between atoms: _189  and  _190
REMARK   81  A    between atoms: _195  and  _197
REMARK   82  A    between atoms: _197  and  _198
REMARK   83  A    between atoms: _197  and  _200
REMARK   84  A    between atoms: _200  and  _201
REMARK   85  A    between atoms: _204  and  _206
REMARK   86  A    between atoms: _206  and  _207
REMARK   87  A    between atoms: _209  and  _211
REMARK   88  A    between atoms: _211  and  _212
REMARK   89  A    between atoms: _214  and  _216
REMARK   90  A    between atoms: _216  and  _217
REMARK   91  A    between atoms: _216  and  _219
REMARK   92  A    between atoms: _219  and  _220
REMARK   93  A    between atoms: _230  and  _232
REMARK   94  A    between atoms: _232  and  _233
REMARK   95  A    between atoms: _232  and  _235
REMARK   96  A    between atoms: _235  and  _236
REMARK   97  A    between atoms: _236  and  _237
REMARK   98  A    between atoms: _237  and  _238
REMARK   99  A    between atoms: _238  and  _239
REMARK  100  A    between atoms: _243  and  _245
REMARK  101  A    between atoms: _245  and  _246
REMARK  102  A    between atoms: _249  and  _251
REMARK  103  A    between atoms: _251  and  _252
REMARK  104  A    between atoms: _251  and  _254
REMARK  105  A    between atoms: _254  and  _255
REMARK  106  A    between atoms: _260  and  _262
REMARK  107  A    between atoms: _262  and  _263
REMARK  108  A    between atoms: _262  and  _265
REMARK  109  A    between atoms: _265  and  _266
REMARK  110  A    between atoms: _266  and  _267
REMARK  111  A    between atoms: _267  and  _268
REMARK  112  A    between atoms: _277  and  _279
REMARK  113  A    between atoms: _279  and  _280
REMARK  114  A    between atoms: _279  and  _282
REMARK  115  A    between atoms: _282  and  _283
REMARK  116  A    between atoms: _286  and  _288
REMARK  117  A    between atoms: _288  and  _289
REMARK  118  A    between atoms: _288  and  _291
REMARK  119  A    between atoms: _291  and  _292
REMARK  120  A    between atoms: _295  and  _297
REMARK  121  A    between atoms: _297  and  _298
REMARK  122  A    between atoms: _297  and  _300
REMARK  123  A    between atoms: _300  and  _301
REMARK  124  A    between atoms: _304  and  _306
REMARK  125  A    between atoms: _306  and  _307
REMARK  126  A    between atoms: _306  and  _309
REMARK  127  A    between atoms: _309  and  _310
REMARK  128  A    between atoms: _313  and  _315
REMARK  129  A    between atoms: _315  and  _316
REMARK  130  A    between atoms: _315  and  _318
REMARK  131  A    between atoms: _318  and  _319
REMARK  132  A    between atoms: _319  and  _320
REMARK  133  A    between atoms: _322  and  _324
REMARK  134  A    between atoms: _324  and  _325
REMARK  135  A    between atoms: _324  and  _327
REMARK  136  A    between atoms: _327  and  _328
REMARK  137  A    between atoms: _331  and  _333
REMARK  138  A    between atoms: _333  and  _334
REMARK  139  A    between atoms: _333  and  _336
REMARK  140  A    between atoms: _338  and  _340
REMARK  141  A    between atoms: _340  and  _341
REMARK  142  A    between atoms: _340  and  _343
REMARK  143  A    between atoms: _343  and  _344
REMARK  144  A    between atoms: _344  and  _345
REMARK  145  A    between atoms: _345  and  _346
REMARK  146  A    between atoms: _355  and  _357
REMARK  147  A    between atoms: _357  and  _358
REMARK  148  A    between atoms: _360  and  _362
REMARK  149  A    between atoms: _362  and  _363
REMARK  150  A    between atoms: _362  and  _365
REMARK  151  A    between atoms: _365  and  _366
REMARK                            x       y       z     vdW  Elec       q    Type
REMARK                         _______ _______ _______ _____ _____    ______ ____
ROOT
ATOM      1  CG  TRP A   1      92.743   2.573  36.696  0.00  0.00    -0.002 A 
ATOM      2  CD1 TRP A   1      93.376   3.230  37.711  0.00  0.00    +0.068 A 
ATOM      3  NE1 TRP A   1      93.903   2.329  38.603  0.00  0.00    -0.352 N 
ATOM      4  HE1 TRP A   1      94.436   2.571  39.463  0.00  0.00    +0.166 HD
ATOM      5  CE2 TRP A   1      93.614   1.062  38.179  0.00  0.00    +0.056 A 
ATOM      6  CZ2 TRP A   1      93.942  -0.175  38.749  0.00  0.00    +0.017 A 
ATOM      7  CH2 TRP A   1      93.513  -1.302  38.097  0.00  0.00    +0.001 A 
ATOM      8  CZ3 TRP A   1      92.774  -1.224  36.904  0.00  0.00    +0.000 A 
ATOM      9  CE3 TRP A   1      92.447   0.006  36.338  0.00  0.00    +0.001 A 
ATOM     10  CD2 TRP A   1      92.878   1.180  36.977  0.00  0.00    +0.013 A 
ENDROOT
BRANCH   1  11
ATOM     11  CB  TRP A   1      92.021   3.189  35.549  0.00  0.00    +0.053 C 
BRANCH  11  12
ATOM     12  CA  TRP A   1      92.557   2.839  34.155  0.00  0.00    +0.137 C 
BRANCH  12  13
ATOM     13  N   TRP A   1      93.723   3.662  33.812  0.00  0.00    -0.239 NA
ATOM     14  H   TRP A   1      93.968   4.467  34.424  0.00  0.00    +0.142 HD
ENDBRANCH  12  13
BRANCH  12  15
ATOM     15  C   TRP A   1      91.412   2.988  33.153  0.00  0.00    +0.224 C 
ATOM     16  O   TRP A   1      90.461   2.216  33.177  0.00  0.00    -0.287 OA
ENDBRANCH  12  15
ENDBRANCH  11  12
ENDBRANCH   1  11
TORSDOF 4
REMARK  Name = ../refined-set-2016/2bo4/2bo4_pocket.pdb
REMARK  151 active torsions:
REMARK  status: ('A' for Active; 'I' for Inactive)
REMARK    1  A    between atoms: _1  and  _3
REMARK    2  A    between atoms: _3  and  _4
REMARK    3  A    between atoms: _3  and  _6
REMARK    4  A    between atoms: _6  and  _7
REMARK    5  A    between atoms: _7  and  _8
REMARK    6  A    between atoms: _8  and  _9
REMARK    7  A    between atoms: _9  and  _10
REMARK    8  A    between atoms: _14  and  _16
REMARK    9  A    between atoms: _16  and  _17
REMARK   10  A    between atoms: _16  and  _19
REMARK   11  A    between atoms: _19  and  _20
REMARK   12  A    between atoms: _23  and  _25
REMARK   13  A    between atoms: _25  and  _26
REMARK   14  A    between atoms: _25  and  _28
REMARK   15  A    between atoms: _28  and  _29
REMARK   16  A    between atoms: _32  and  _34
REMARK   17  A    between atoms: _34  and  _35
REMARK   18  A    between atoms: _34  and  _37
REMARK   19  A    between atoms: _37  and  _38
REMARK   20  A    between atoms: _38  and  _39
REMARK   21  A    between atoms: _39  and  _40
REMARK   22  A    between atoms: _49  and  _51
REMARK   23  A    between atoms: _51  and  _52
REMARK   24  A    between atoms: _55  and  _57
REMARK   25  A    between atoms: _57  and  _58
REMARK   26  A    between atoms: _57  and  _60
REMARK   27  A    between atoms: _60  and  _61
REMARK   28  A    between atoms: _64  and  _66
REMARK   29  A    between atoms: _66  and  _67
REMARK   30  A    between atoms: _66  and  _69
REMARK   31  A    between atoms: _69  and  _70
REMARK   32  A    between atoms: _73  and  _75
REMARK   33  A    between atoms: _75  and  _76
REMARK   34  A    between atoms: _79  and  _81
REMARK   35  A    between atoms: _81  and  _82
REMARK   36  A    between atoms: _81  and  _84
REMARK   37  A    between atoms: _84  and  _85
REMARK   38  A    between atoms: _85  and  _86
REMARK   39  A    between atoms: _88  and  _90
REMARK   40  A    between atoms: _90  and  _91
REMARK   41  A    between atoms: _90  and  _93
REMARK   42  A    between atoms: _93  and  _94
REMARK   43  A    between atoms: _97  and  _99
REMARK   44  A    between atoms: _99  and  _100
REMARK   45  A    between atoms: _99  and  _102
REMARK   46  A    between atoms: _102  and  _103
REMARK   47  A    between atoms: _106  and  _108
REMARK   48  A    between atoms: _108  and  _109
REMARK   49  A    between atoms: _108  and  _111
REMARK   50  A    between atoms: _111  and  _112
REMARK   51  A    between atoms: _122  and  _124
REMARK   52  A    between atoms: _124  and  _125
REMARK   53  A    between atoms: _124  and  _127
REMARK   54  A    between atoms: _127  and  _128
REMARK   55  A    between atoms: _128  and  _129
REMARK   56  A    between atoms: _131  and  _133
REMARK   57  A    between atoms: _133  and  _134
REMARK   58  A    between atoms: _133  and  _136
REMARK   59  A    between atoms: _136  and  _137
REMARK   60  A    between atoms: _140  and  _142
REMARK   61  A    between atoms: _142  and  _143
REMARK   62  A    between atoms: _142  and  _145
REMARK   63  A    between atoms: _145  and  _146
REMARK   64  A    between atoms: _149  and  _151
REMARK   65  A    between atoms: _151  and  _152
REMARK   66  A    between atoms: _151  and  _154
REMARK   67  A    between atoms: _154  and  _155
REMARK   68  A    between atoms: _155  and  _156
REMARK   69  A    between atoms: _156  and  _157
REMARK   70  A    between atoms: _166  and  _168
REMARK   71  A    between atoms: _168  and  _169
REMARK   72  A    between atoms: _168  and  _171
REMARK   73  A    between atoms: _171  and  _172
REMARK   74  A    between atoms: _172  and  _173
REMARK   75  A    between atoms: _176  and  _178
REMARK   76  A    between atoms: _178  and  _179
REMARK   77  A    between atoms: _178  and  _181
REMARK   78  A    between atoms: _181  and  _182
REMARK   79  A    between atoms: _182  and  _183
REMARK   80  A    between atoms: _189  and  _190
REMARK   81  A    between atoms: _195  and  _197
REMARK   82  A    between atoms: _197  and  _198
REMARK   83  A    between atoms: _197  and  _200
REMARK   84  A    between atoms: _200  and  _201
REMARK   85  A    between atoms: _204  and  _206
REMARK   86  A    between atoms: _206  and  _207
REMARK   87  A    between atoms: _209  and  _211
REMARK   88  A    between atoms: _211  and  _212
REMARK   89  A    between atoms: _214  and  _216
REMARK   90  A    between atoms: _216  and  _217
REMARK   91  A    between atoms: _216  and  _219
REMARK   92  A    between atoms: _219  and  _220
REMARK   93  A    between atoms: _230  and  _232
REMARK   94  A    between atoms: _232  and  _233
REMARK   95  A    between atoms: _232  and  _235
REMARK   96  A    between atoms: _235  and  _236
REMARK   97  A    between atoms: _236  and  _237
REMARK   98  A    between atoms: _237  and  _238
REMARK   99  A    between atoms: _238  and  _239
REMARK  100  A    between atoms: _243  and  _245
REMARK  101  A    between atoms: _245  and  _246
REMARK  102  A    between atoms: _249  and  _251
REMARK  103  A    between atoms: _251  and  _252
REMARK  104  A    between atoms: _251  and  _254
REMARK  105  A    between atoms: _254  and  _255
REMARK  106  A    between atoms: _260  and  _262
REMARK  107  A    between atoms: _262  and  _263
REMARK  108  A    between atoms: _262  and  _265
REMARK  109  A    between atoms: _265  and  _266
REMARK  110  A    between atoms: _266  and  _267
REMARK  111  A    between atoms: _267  and  _268
REMARK  112  A    between atoms: _277  and  _279
REMARK  113  A    between atoms: _279  and  _280
REMARK  114  A    between atoms: _279  and  _282
REMARK  115  A    between atoms: _282  and  _283
REMARK  116  A    between atoms: _286  and  _288
REMARK  117  A    between atoms: _288  and  _289
REMARK  118  A    between atoms: _288  and  _291
REMARK  119  A    between atoms: _291  and  _292
REMARK  120  A    between atoms: _295  and  _297
REMARK  121  A    between atoms: _297  and  _298
REMARK  122  A    between atoms: _297  and  _300
REMARK  123  A    between atoms: _300  and  _301
REMARK  124  A    between atoms: _304  and  _306
REMARK  125  A    between atoms: _306  and  _307
REMARK  126  A    between atoms: _306  and  _309
REMARK  127  A    between atoms: _309  and  _310
REMARK  128  A    between atoms: _313  and  _315
REMARK  129  A    between atoms: _315  and  _316
REMARK  130  A    between atoms: _315  and  _318
REMARK  131  A    between atoms: _318  and  _319
REMARK  132  A    between atoms: _319  and  _320
REMARK  133  A    between atoms: _322  and  _324
REMARK  134  A    between atoms: _324  and  _325
REMARK  135  A    between atoms: _324  and  _327
REMARK  136  A    between atoms: _327  and  _328
REMARK  137  A    between atoms: _331  and  _333
REMARK  138  A    between atoms: _333  and  _334
REMARK  139  A    between atoms: _333  and  _336
REMARK  140  A    between atoms: _338  and  _340
REMARK  141  A    between atoms: _340  and  _341
REMARK  142  A    between atoms: _340  and  _343
REMARK  143  A    between atoms: _343  and  _344
REMARK  144  A    between atoms: _344  and  _345
REMARK  145  A    between atoms: _345  and  _346
REMARK  146  A    between atoms: _355  and  _357
REMARK  147  A    between atoms: _357  and  _358
REMARK  148  A    between atoms: _360  and  _362
REMARK  149  A    between atoms: _362  and  _363
REMARK  150  A    between atoms: _362  and  _365
REMARK  151  A    between atoms: _365  and  _366
REMARK                            x       y       z     vdW  Elec       q    Type
REMARK                         _______ _______ _______ _____ _____    ______ ____
ROOT
ATOM      1  CA  HIS A   3      87.682  -8.233  46.693  0.00  0.00    +0.155 C 
ENDROOT
BRANCH   1   3
ATOM      2  C   ALA A   2      87.952  -9.345  44.520  0.00  0.00    +0.241 C 
ATOM      3  N   HIS A   3      88.019  -9.379  45.851  0.00  0.00    -0.297 N 
ATOM      4  H   HIS A   3      88.325 -10.260  46.311  0.00  0.00    +0.150 HD
ATOM      5  O   ALA A   2      87.562  -8.355  43.891  0.00  0.00    -0.273 OA
BRANCH   2   6
ATOM      6  CA  ALA A   2      88.449 -10.611  43.785  0.00  0.00    +0.149 C 
ATOM      7  CB  ALA A   2      89.848 -10.329  43.204  0.00  0.00    +0.031 C 
BRANCH   6  10
ATOM      8  C   LYS A   1      86.573 -12.018  42.942  0.00  0.00    +0.238 C 
ATOM      9  O   LYS A   1      86.158 -12.276  44.081  0.00  0.00    -0.274 OA
ATOM     10  N   ALA A   2      87.564 -11.140  42.720  0.00  0.00    -0.297 N 
ATOM     11  H   ALA A   2      87.720 -10.812  41.745  0.00  0.00    +0.150 HD
BRANCH   8  12
ATOM     12  CA  LYS A   1      85.940 -12.721  41.699  0.00  0.00    +0.145 C 
BRANCH  12  13
ATOM     13  N   LYS A   1      84.501 -13.033  41.841  0.00  0.00    -0.238 NA
ATOM     14  H   LYS A   1      83.879 -12.282  42.202  0.00  0.00    +0.142 HD
ENDBRANCH  12  13
BRANCH  12  15
ATOM     15  CB  LYS A   1      86.121 -11.869  40.450  0.00  0.00    +0.026 C 
BRANCH  15  16
ATOM     16  CG  LYS A   1      85.429 -10.509  40.518  0.00  0.00    -0.000 C 
BRANCH  16  17
ATOM     17  CD  LYS A   1      85.907  -9.594  39.394  0.00  0.00    -0.024 C 
BRANCH  17  18
ATOM     18  CE  LYS A   1      85.101  -8.299  39.381  0.00  0.00    -0.086 C 
BRANCH  18  19
ATOM     19  NZ  LYS A   1      85.543  -7.369  38.307  0.00  0.00    +0.380 N 
ATOM     20  HZ1 LYS A   1      86.543  -7.125  38.452  0.00  0.00    -0.089 HD
ATOM     21  HZ2 LYS A   1      84.966  -6.505  38.339  0.00  0.00    -0.089 HD
ATOM     22  HZ3 LYS A   1      85.428  -7.830  37.382  0.00  0.00    -0.089 HD
ENDBRANCH  18  19
ENDBRANCH  17  18
ENDBRANCH  16  17
ENDBRANCH  15  16
ENDBRANCH  12  15
ENDBRANCH   8  12
ENDBRANCH   6  10
ENDBRANCH   2   6
ENDBRANCH   1   3
BRANCH   1  23
ATOM     23  C   HIS A   3      88.937  -7.458  47.041  0.00  0.00    +0.241 C 
ATOM     24  O   HIS A   3      89.907  -8.037  47.538  0.00  0.00    -0.273 OA
ATOM     25  N   ARG A   4      88.917  -6.145  46.806  0.00  0.00    -0.297 N 
ATOM     26  H   ARG A   4      88.111  -5.725  46.300  0.00  0.00    +0.150 HD
BRANCH  25  27
ATOM     27  CA  ARG A   4      90.015  -5.291  47.252  0.00  0.00    +0.149 C 
BRANCH  27  28
ATOM     28  C   ARG A   4      90.119  -5.339  48.777  0.00  0.00    +0.241 C 
ATOM     29  O   ARG A   4      89.181  -5.771  49.467  0.00  0.00    -0.273 OA
ATOM     30  N   LEU A   5      91.278  -4.935  49.290  0.00  0.00    -0.298 N 
ATOM     31  H   LEU A   5      92.070  -4.732  48.647  0.00  0.00    +0.150 HD
BRANCH  30  32
ATOM     32  CA  LEU A   5      91.474  -4.767  50.731  0.00  0.00    +0.137 C 
BRANCH  32  33
ATOM     33  C   LEU A   5      90.389  -3.823  51.268  0.00  0.00    +0.227 C 
ATOM     34  O   LEU A   5      89.945  -2.906  50.573  0.00  0.00    -0.286 OA
ENDBRANCH  32  33
BRANCH  32  35
ATOM     35  CB  LEU A   5      92.874  -4.200  51.033  0.00  0.00    +0.028 C 
BRANCH  35  36
ATOM     36  CG  LEU A   5      93.912  -5.178  51.618  0.00  0.00    +0.002 C 
ATOM     37  CD2 LEU A   5      94.143  -4.890  53.116  0.00  0.00    +0.000 C 
ATOM     38  CD1 LEU A   5      95.249  -5.147  50.828  0.00  0.00    +0.000 C 
ENDBRANCH  35  36
ENDBRANCH  32  35
ENDBRANCH  30  32
ENDBRANCH  27  28
BRANCH  27  39
ATOM     39  CB  ARG A   4      89.843  -3.846  46.757  0.00  0.00    +0.033 C 
BRANCH  39  40
ATOM     40  CG  ARG A   4      88.663  -3.074  47.366  0.00  0.00    +0.045 C 
BRANCH  40  41
ATOM     41  CD  ARG A   4      88.614  -1.623  46.915  0.00  0.00    +0.174 C 
BRANCH  41  42
ATOM     42  NE  ARG A   4      87.368  -0.947  47.291  0.00  0.00    -0.265 N 
ATOM     43  CZ  ARG A   4      87.245   0.007  48.228  0.00  0.00    +0.342 C 
ATOM     44  NH2 ARG A   4      88.281   0.431  48.943  0.00  0.00    -0.292 N 
ATOM     45 HH21 ARG A   4      88.149   1.172  49.661  0.00  0.00    +0.255 HD
ATOM     46 HH22 ARG A   4      89.224   0.022  48.785  0.00  0.00    +0.255 HD
ATOM     47  NH1 ARG A   4      86.054   0.543  48.452  0.00  0.00    -0.292 N 
ATOM     48 HH11 ARG A   4      85.944   1.283  49.175  0.00  0.00    +0.255 HD
ATOM     49 HH12 ARG A   4      85.229   0.224  47.905  0.00  0.00    +0.255 HD
ATOM     50  HE  ARG A   4      86.504  -1.232  46.788  0.00  0.00    +0.259 HD
ENDBRANCH  41  42
ENDBRANCH  40  41
ENDBRANCH  39  40
ENDBRANCH  27  39
ENDBRANCH  25  27
ENDBRANCH   1  23
BRANCH   1  51
ATOM     51  CB  HIS A   3      87.020  -8.701  47.988  0.00  0.00    +0.076 C 
BRANCH  51  52
ATOM     52  CG  HIS A   3      85.812  -9.551  47.762  0.00  0.00    +0.082 A 
ATOM     53  CD2 HIS A   3      85.437 -10.739  48.298  0.00  0.00    +0.115 A 
ATOM     54  NE2 HIS A   3      84.237 -11.087  47.716  0.00  0.00    -0.221 NA
ATOM     55  CE1 HIS A   3      83.891 -10.145  46.853  0.00  0.00    +0.199 A 
ATOM     56  ND1 HIS A   3      84.832  -9.212  46.853  0.00  0.00    -0.227 NA
ENDBRANCH  51  52
ENDBRANCH   1  51
TORSDOF 23
REMARK  Name = ../refined-set-2016/2bo4/2bo4_pocket.pdb
REMARK  151 active torsions:
REMARK  status: ('A' for Active; 'I' for Inactive)
REMARK    1  A    between atoms: _1  and  _3
REMARK    2  A    between atoms: _3  and  _4
REMARK    3  A    between atoms: _3  and  _6
REMARK    4  A    between atoms: _6  and  _7
REMARK    5  A    between atoms: _7  and  _8
REMARK    6  A    between atoms: _8  and  _9
REMARK    7  A    between atoms: _9  and  _10
REMARK    8  A    between atoms: _14  and  _16
REMARK    9  A    between atoms: _16  and  _17
REMARK   10  A    between atoms: _16  and  _19
REMARK   11  A    between atoms: _19  and  _20
REMARK   12  A    between atoms: _23  and  _25
REMARK   13  A    between atoms: _25  and  _26
REMARK   14  A    between atoms: _25  and  _28
REMARK   15  A    between atoms: _28  and  _29
REMARK   16  A    between atoms: _32  and  _34
REMARK   17  A    between atoms: _34  and  _35
REMARK   18  A    between atoms: _34  and  _37
REMARK   19  A    between atoms: _37  and  _38
REMARK   20  A    between atoms: _38  and  _39
REMARK   21  A    between atoms: _39  and  _40
REMARK   22  A    between atoms: _49  and  _51
REMARK   23  A    between atoms: _51  and  _52
REMARK   24  A    between atoms: _55  and  _57
REMARK   25  A    between atoms: _57  and  _58
REMARK   26  A    between atoms: _57  and  _60
REMARK   27  A    between atoms: _60  and  _61
REMARK   28  A    between atoms: _64  and  _66
REMARK   29  A    between atoms: _66  and  _67
REMARK   30  A    between atoms: _66  and  _69
REMARK   31  A    between atoms: _69  and  _70
REMARK   32  A    between atoms: _73  and  _75
REMARK   33  A    between atoms: _75  and  _76
REMARK   34  A    between atoms: _79  and  _81
REMARK   35  A    between atoms: _81  and  _82
REMARK   36  A    between atoms: _81  and  _84
REMARK   37  A    between atoms: _84  and  _85
REMARK   38  A    between atoms: _85  and  _86
REMARK   39  A    between atoms: _88  and  _90
REMARK   40  A    between atoms: _90  and  _91
REMARK   41  A    between atoms: _90  and  _93
REMARK   42  A    between atoms: _93  and  _94
REMARK   43  A    between atoms: _97  and  _99
REMARK   44  A    between atoms: _99  and  _100
REMARK   45  A    between atoms: _99  and  _102
REMARK   46  A    between atoms: _102  and  _103
REMARK   47  A    between atoms: _106  and  _108
REMARK   48  A    between atoms: _108  and  _109
REMARK   49  A    between atoms: _108  and  _111
REMARK   50  A    between atoms: _111  and  _112
REMARK   51  A    between atoms: _122  and  _124
REMARK   52  A    between atoms: _124  and  _125
REMARK   53  A    between atoms: _124  and  _127
REMARK   54  A    between atoms: _127  and  _128
REMARK   55  A    between atoms: _128  and  _129
REMARK   56  A    between atoms: _131  and  _133
REMARK   57  A    between atoms: _133  and  _134
REMARK   58  A    between atoms: _133  and  _136
REMARK   59  A    between atoms: _136  and  _137
REMARK   60  A    between atoms: _140  and  _142
REMARK   61  A    between atoms: _142  and  _143
REMARK   62  A    between atoms: _142  and  _145
REMARK   63  A    between atoms: _145  and  _146
REMARK   64  A    between atoms: _149  and  _151
REMARK   65  A    between atoms: _151  and  _152
REMARK   66  A    between atoms: _151  and  _154
REMARK   67  A    between atoms: _154  and  _155
REMARK   68  A    between atoms: _155  and  _156
REMARK   69  A    between atoms: _156  and  _157
REMARK   70  A    between atoms: _166  and  _168
REMARK   71  A    between atoms: _168  and  _169
REMARK   72  A    between atoms: _168  and  _171
REMARK   73  A    between atoms: _171  and  _172
REMARK   74  A    between atoms: _172  and  _173
REMARK   75  A    between atoms: _176  and  _178
REMARK   76  A    between atoms: _178  and  _179
REMARK   77  A    between atoms: _178  and  _181
REMARK   78  A    between atoms: _181  and  _182
REMARK   79  A    between atoms: _182  and  _183
REMARK   80  A    between atoms: _189  and  _190
REMARK   81  A    between atoms: _195  and  _197
REMARK   82  A    between atoms: _197  and  _198
REMARK   83  A    between atoms: _197  and  _200
REMARK   84  A    between atoms: _200  and  _201
REMARK   85  A    between atoms: _204  and  _206
REMARK   86  A    between atoms: _206  and  _207
REMARK   87  A    between atoms: _209  and  _211
REMARK   88  A    between atoms: _211  and  _212
REMARK   89  A    between atoms: _214  and  _216
REMARK   90  A    between atoms: _216  and  _217
REMARK   91  A    between atoms: _216  and  _219
REMARK   92  A    between atoms: _219  and  _220
REMARK   93  A    between atoms: _230  and  _232
REMARK   94  A    between atoms: _232  and  _233
REMARK   95  A    between atoms: _232  and  _235
REMARK   96  A    between atoms: _235  and  _236
REMARK   97  A    between atoms: _236  and  _237
REMARK   98  A    between atoms: _237  and  _238
REMARK   99  A    between atoms: _238  and  _239
REMARK  100  A    between atoms: _243  and  _245
REMARK  101  A    between atoms: _245  and  _246
REMARK  102  A    between atoms: _249  and  _251
REMARK  103  A    between atoms: _251  and  _252
REMARK  104  A    between atoms: _251  and  _254
REMARK  105  A    between atoms: _254  and  _255
REMARK  106  A    between atoms: _260  and  _262
REMARK  107  A    between atoms: _262  and  _263
REMARK  108  A    between atoms: _262  and  _265
REMARK  109  A    between atoms: _265  and  _266
REMARK  110  A    between atoms: _266  and  _267
REMARK  111  A    between atoms: _267  and  _268
REMARK  112  A    between atoms: _277  and  _279
REMARK  113  A    between atoms: _279  and  _280
REMARK  114  A    between atoms: _279  and  _282
REMARK  115  A    between atoms: _282  and  _283
REMARK  116  A    between atoms: _286  and  _288
REMARK  117  A    between atoms: _288  and  _289
REMARK  118  A    between atoms: _288  and  _291
REMARK  119  A    between atoms: _291  and  _292
REMARK  120  A    between atoms: _295  and  _297
REMARK  121  A    between atoms: _297  and  _298
REMARK  122  A    between atoms: _297  and  _300
REMARK  123  A    between atoms: _300  and  _301
REMARK  124  A    between atoms: _304  and  _306
REMARK  125  A    between atoms: _306  and  _307
REMARK  126  A    between atoms: _306  and  _309
REMARK  127  A    between atoms: _309  and  _310
REMARK  128  A    between atoms: _313  and  _315
REMARK  129  A    between atoms: _315  and  _316
REMARK  130  A    between atoms: _315  and  _318
REMARK  131  A    between atoms: _318  and  _319
REMARK  132  A    between atoms: _319  and  _320
REMARK  133  A    between atoms: _322  and  _324
REMARK  134  A    between atoms: _324  and  _325
REMARK  135  A    between atoms: _324  and  _327
REMARK  136  A    between atoms: _327  and  _328
REMARK  137  A    between atoms: _331  and  _333
REMARK  138  A    between atoms: _333  and  _334
REMARK  139  A    between atoms: _333  and  _336
REMARK  140  A    between atoms: _338  and  _340
REMARK  141  A    between atoms: _340  and  _341
REMARK  142  A    between atoms: _340  and  _343
REMARK  143  A    between atoms: _343  and  _344
REMARK  144  A    between atoms: _344  and  _345
REMARK  145  A    between atoms: _345  and  _346
REMARK  146  A    between atoms: _355  and  _357
REMARK  147  A    between atoms: _357  and  _358
REMARK  148  A    between atoms: _360  and  _362
REMARK  149  A    between atoms: _362  and  _363
REMARK  150  A    between atoms: _362  and  _365
REMARK  151  A    between atoms: _365  and  _366
REMARK                            x       y       z     vdW  Elec       q    Type
REMARK                         _______ _______ _______ _____ _____    ______ ____
ROOT
ATOM      1  CA  LEU A   1      86.579   5.078  48.942  0.00  0.00    +0.133 C 
ENDROOT
BRANCH   1   2
ATOM      2  N   LEU A   1      86.723   4.870  50.373  0.00  0.00    -0.239 NA
ATOM      3  H   LEU A   1      86.094   5.379  51.026  0.00  0.00    +0.142 HD
ENDBRANCH   1   2
BRANCH   1   4
ATOM      4  C   LEU A   1      87.839   5.652  48.274  0.00  0.00    +0.224 C 
ATOM      5  O   LEU A   1      88.030   5.485  47.072  0.00  0.00    -0.287 OA
ENDBRANCH   1   4
BRANCH   1   6
ATOM      6  CB  LEU A   1      85.379   5.979  48.666  0.00  0.00    +0.025 C 
BRANCH   6   7
ATOM      7  CG  LEU A   1      84.018   5.361  48.989  0.00  0.00    +0.002 C 
ATOM      8  CD2 LEU A   1      82.915   6.299  48.530  0.00  0.00    +0.000 C 
ATOM      9  CD1 LEU A   1      83.859   3.998  48.351  0.00  0.00    +0.000 C 
ENDBRANCH   6   7
ENDBRANCH   1   6
TORSDOF 4
REMARK  Name = ../refined-set-2016/2bo4/2bo4_pocket.pdb
REMARK  151 active torsions:
REMARK  status: ('A' for Active; 'I' for Inactive)
REMARK    1  A    between atoms: _1  and  _3
REMARK    2  A    between atoms: _3  and  _4
REMARK    3  A    between atoms: _3  and  _6
REMARK    4  A    between atoms: _6  and  _7
REMARK    5  A    between atoms: _7  and  _8
REMARK    6  A    between atoms: _8  and  _9
REMARK    7  A    between atoms: _9  and  _10
REMARK    8  A    between atoms: _14  and  _16
REMARK    9  A    between atoms: _16  and  _17
REMARK   10  A    between atoms: _16  and  _19
REMARK   11  A    between atoms: _19  and  _20
REMARK   12  A    between atoms: _23  and  _25
REMARK   13  A    between atoms: _25  and  _26
REMARK   14  A    between atoms: _25  and  _28
REMARK   15  A    between atoms: _28  and  _29
REMARK   16  A    between atoms: _32  and  _34
REMARK   17  A    between atoms: _34  and  _35
REMARK   18  A    between atoms: _34  and  _37
REMARK   19  A    between atoms: _37  and  _38
REMARK   20  A    between atoms: _38  and  _39
REMARK   21  A    between atoms: _39  and  _40
REMARK   22  A    between atoms: _49  and  _51
REMARK   23  A    between atoms: _51  and  _52
REMARK   24  A    between atoms: _55  and  _57
REMARK   25  A    between atoms: _57  and  _58
REMARK   26  A    between atoms: _57  and  _60
REMARK   27  A    between atoms: _60  and  _61
REMARK   28  A    between atoms: _64  and  _66
REMARK   29  A    between atoms: _66  and  _67
REMARK   30  A    between atoms: _66  and  _69
REMARK   31  A    between atoms: _69  and  _70
REMARK   32  A    between atoms: _73  and  _75
REMARK   33  A    between atoms: _75  and  _76
REMARK   34  A    between atoms: _79  and  _81
REMARK   35  A    between atoms: _81  and  _82
REMARK   36  A    between atoms: _81  and  _84
REMARK   37  A    between atoms: _84  and  _85
REMARK   38  A    between atoms: _85  and  _86
REMARK   39  A    between atoms: _88  and  _90
REMARK   40  A    between atoms: _90  and  _91
REMARK   41  A    between atoms: _90  and  _93
REMARK   42  A    between atoms: _93  and  _94
REMARK   43  A    between atoms: _97  and  _99
REMARK   44  A    between atoms: _99  and  _100
REMARK   45  A    between atoms: _99  and  _102
REMARK   46  A    between atoms: _102  and  _103
REMARK   47  A    between atoms: _106  and  _108
REMARK   48  A    between atoms: _108  and  _109
REMARK   49  A    between atoms: _108  and  _111
REMARK   50  A    between atoms: _111  and  _112
REMARK   51  A    between atoms: _122  and  _124
REMARK   52  A    between atoms: _124  and  _125
REMARK   53  A    between atoms: _124  and  _127
REMARK   54  A    between atoms: _127  and  _128
REMARK   55  A    between atoms: _128  and  _129
REMARK   56  A    between atoms: _131  and  _133
REMARK   57  A    between atoms: _133  and  _134
REMARK   58  A    between atoms: _133  and  _136
REMARK   59  A    between atoms: _136  and  _137
REMARK   60  A    between atoms: _140  and  _142
REMARK   61  A    between atoms: _142  and  _143
REMARK   62  A    between atoms: _142  and  _145
REMARK   63  A    between atoms: _145  and  _146
REMARK   64  A    between atoms: _149  and  _151
REMARK   65  A    between atoms: _151  and  _152
REMARK   66  A    between atoms: _151  and  _154
REMARK   67  A    between atoms: _154  and  _155
REMARK   68  A    between atoms: _155  and  _156
REMARK   69  A    between atoms: _156  and  _157
REMARK   70  A    between atoms: _166  and  _168
REMARK   71  A    between atoms: _168  and  _169
REMARK   72  A    between atoms: _168  and  _171
REMARK   73  A    between atoms: _171  and  _172
REMARK   74  A    between atoms: _172  and  _173
REMARK   75  A    between atoms: _176  and  _178
REMARK   76  A    between atoms: _178  and  _179
REMARK   77  A    between atoms: _178  and  _181
REMARK   78  A    between atoms: _181  and  _182
REMARK   79  A    between atoms: _182  and  _183
REMARK   80  A    between atoms: _189  and  _190
REMARK   81  A    between atoms: _195  and  _197
REMARK   82  A    between atoms: _197  and  _198
REMARK   83  A    between atoms: _197  and  _200
REMARK   84  A    between atoms: _200  and  _201
REMARK   85  A    between atoms: _204  and  _206
REMARK   86  A    between atoms: _206  and  _207
REMARK   87  A    between atoms: _209  and  _211
REMARK   88  A    between atoms: _211  and  _212
REMARK   89  A    between atoms: _214  and  _216
REMARK   90  A    between atoms: _216  and  _217
REMARK   91  A    between atoms: _216  and  _219
REMARK   92  A    between atoms: _219  and  _220
REMARK   93  A    between atoms: _230  and  _232
REMARK   94  A    between atoms: _232  and  _233
REMARK   95  A    between atoms: _232  and  _235
REMARK   96  A    between atoms: _235  and  _236
REMARK   97  A    between atoms: _236  and  _237
REMARK   98  A    between atoms: _237  and  _238
REMARK   99  A    between atoms: _238  and  _239
REMARK  100  A    between atoms: _243  and  _245
REMARK  101  A    between atoms: _245  and  _246
REMARK  102  A    between atoms: _249  and  _251
REMARK  103  A    between atoms: _251  and  _252
REMARK  104  A    between atoms: _251  and  _254
REMARK  105  A    between atoms: _254  and  _255
REMARK  106  A    between atoms: _260  and  _262
REMARK  107  A    between atoms: _262  and  _263
REMARK  108  A    between atoms: _262  and  _265
REMARK  109  A    between atoms: _265  and  _266
REMARK  110  A    between atoms: _266  and  _267
REMARK  111  A    between atoms: _267  and  _268
REMARK  112  A    between atoms: _277  and  _279
REMARK  113  A    between atoms: _279  and  _280
REMARK  114  A    between atoms: _279  and  _282
REMARK  115  A    between atoms: _282  and  _283
REMARK  116  A    between atoms: _286  and  _288
REMARK  117  A    between atoms: _288  and  _289
REMARK  118  A    between atoms: _288  and  _291
REMARK  119  A    between atoms: _291  and  _292
REMARK  120  A    between atoms: _295  and  _297
REMARK  121  A    between atoms: _297  and  _298
REMARK  122  A    between atoms: _297  and  _300
REMARK  123  A    between atoms: _300  and  _301
REMARK  124  A    between atoms: _304  and  _306
REMARK  125  A    between atoms: _306  and  _307
REMARK  126  A    between atoms: _306  and  _309
REMARK  127  A    between atoms: _309  and  _310
REMARK  128  A    between atoms: _313  and  _315
REMARK  129  A    between atoms: _315  and  _316
REMARK  130  A    between atoms: _315  and  _318
REMARK  131  A    between atoms: _318  and  _319
REMARK  132  A    between atoms: _319  and  _320
REMARK  133  A    between atoms: _322  and  _324
REMARK  134  A    between atoms: _324  and  _325
REMARK  135  A    between atoms: _324  and  _327
REMARK  136  A    between atoms: _327  and  _328
REMARK  137  A    between atoms: _331  and  _333
REMARK  138  A    between atoms: _333  and  _334
REMARK  139  A    between atoms: _333  and  _336
REMARK  140  A    between atoms: _338  and  _340
REMARK  141  A    between atoms: _340  and  _341
REMARK  142  A    between atoms: _340  and  _343
REMARK  143  A    between atoms: _343  and  _344
REMARK  144  A    between atoms: _344  and  _345
REMARK  145  A    between atoms: _345  and  _346
REMARK  146  A    between atoms: _355  and  _357
REMARK  147  A    between atoms: _357  and  _358
REMARK  148  A    between atoms: _360  and  _362
REMARK  149  A    between atoms: _362  and  _363
REMARK  150  A    between atoms: _362  and  _365
REMARK  151  A    between atoms: _365  and  _366
REMARK                            x       y       z     vdW  Elec       q    Type
REMARK                         _______ _______ _______ _____ _____    ______ ____
ROOT
ATOM      1  C   ASP A   1      91.223   3.490  46.088  0.00  0.00    +0.239 C 
ATOM      2  N   LEU A   2      90.051   3.991  45.706  0.00  0.00    -0.298 N 
ATOM      3  H   LEU A   2      89.436   4.420  46.426  0.00  0.00    +0.150 HD
ATOM      4  O   ASP A   1      92.003   2.989  45.295  0.00  0.00    -0.274 OA
ENDROOT
BRANCH   1   5
ATOM      5  CA  ASP A   1      91.579   3.572  47.591  0.00  0.00    +0.156 C 
BRANCH   5   6
ATOM      6  N   ASP A   1      90.829   4.629  48.269  0.00  0.00    -0.238 NA
ATOM      7  H   ASP A   1      90.204   4.384  49.063  0.00  0.00    +0.142 HD
ENDBRANCH   5   6
BRANCH   5   8
ATOM      8  CB  ASP A   1      91.320   2.220  48.256  0.00  0.00    +0.140 C 
BRANCH   8   9
ATOM      9  CG  ASP A   1      91.919   2.121  49.650  0.00  0.00    +0.367 C 
ATOM     10  OD2 ASP A   1      91.609   1.144  50.360  0.00  0.00    -0.246 OA
ATOM     11  OD1 ASP A   1      92.708   2.959  50.133  0.00  0.00    -0.246 OA
ENDBRANCH   8   9
ENDBRANCH   5   8
ENDBRANCH   1   5
BRANCH   2  12
ATOM     12  CA  LEU A   2      89.590   3.965  44.322  0.00  0.00    +0.137 C 
BRANCH  12  13
ATOM     13  C   LEU A   2      89.704   5.321  43.621  0.00  0.00    +0.227 C 
ATOM     14  O   LEU A   2      89.236   5.476  42.500  0.00  0.00    -0.286 OA
ENDBRANCH  12  13
BRANCH  12  15
ATOM     15  CB  LEU A   2      88.124   3.515  44.294  0.00  0.00    +0.028 C 
BRANCH  15  16
ATOM     16  CG  LEU A   2      87.746   2.057  44.020  0.00  0.00    +0.002 C 
ATOM     17  CD2 LEU A   2      86.491   1.702  44.812  0.00  0.00    +0.000 C 
ATOM     18  CD1 LEU A   2      88.865   1.049  44.253  0.00  0.00    +0.000 C 
ENDBRANCH  15  16
ENDBRANCH  12  15
ENDBRANCH   2  12
TORSDOF 8
REMARK  Name = ../refined-set-2016/2bo4/2bo4_pocket.pdb
REMARK  151 active torsions:
REMARK  status: ('A' for Active; 'I' for Inactive)
REMARK    1  A    between atoms: _1  and  _3
REMARK    2  A    between atoms: _3  and  _4
REMARK    3  A    between atoms: _3  and  _6
REMARK    4  A    between atoms: _6  and  _7
REMARK    5  A    between atoms: _7  and  _8
REMARK    6  A    between atoms: _8  and  _9
REMARK    7  A    between atoms: _9  and  _10
REMARK    8  A    between atoms: _14  and  _16
REMARK    9  A    between atoms: _16  and  _17
REMARK   10  A    between atoms: _16  and  _19
REMARK   11  A    between atoms: _19  and  _20
REMARK   12  A    between atoms: _23  and  _25
REMARK   13  A    between atoms: _25  and  _26
REMARK   14  A    between atoms: _25  and  _28
REMARK   15  A    between atoms: _28  and  _29
REMARK   16  A    between atoms: _32  and  _34
REMARK   17  A    between atoms: _34  and  _35
REMARK   18  A    between atoms: _34  and  _37
REMARK   19  A    between atoms: _37  and  _38
REMARK   20  A    between atoms: _38  and  _39
REMARK   21  A    between atoms: _39  and  _40
REMARK   22  A    between atoms: _49  and  _51
REMARK   23  A    between atoms: _51  and  _52
REMARK   24  A    between atoms: _55  and  _57
REMARK   25  A    between atoms: _57  and  _58
REMARK   26  A    between atoms: _57  and  _60
REMARK   27  A    between atoms: _60  and  _61
REMARK   28  A    between atoms: _64  and  _66
REMARK   29  A    between atoms: _66  and  _67
REMARK   30  A    between atoms: _66  and  _69
REMARK   31  A    between atoms: _69  and  _70
REMARK   32  A    between atoms: _73  and  _75
REMARK   33  A    between atoms: _75  and  _76
REMARK   34  A    between atoms: _79  and  _81
REMARK   35  A    between atoms: _81  and  _82
REMARK   36  A    between atoms: _81  and  _84
REMARK   37  A    between atoms: _84  and  _85
REMARK   38  A    between atoms: _85  and  _86
REMARK   39  A    between atoms: _88  and  _90
REMARK   40  A    between atoms: _90  and  _91
REMARK   41  A    between atoms: _90  and  _93
REMARK   42  A    between atoms: _93  and  _94
REMARK   43  A    between atoms: _97  and  _99
REMARK   44  A    between atoms: _99  and  _100
REMARK   45  A    between atoms: _99  and  _102
REMARK   46  A    between atoms: _102  and  _103
REMARK   47  A    between atoms: _106  and  _108
REMARK   48  A    between atoms: _108  and  _109
REMARK   49  A    between atoms: _108  and  _111
REMARK   50  A    between atoms: _111  and  _112
REMARK   51  A    between atoms: _122  and  _124
REMARK   52  A    between atoms: _124  and  _125
REMARK   53  A    between atoms: _124  and  _127
REMARK   54  A    between atoms: _127  and  _128
REMARK   55  A    between atoms: _128  and  _129
REMARK   56  A    between atoms: _131  and  _133
REMARK   57  A    between atoms: _133  and  _134
REMARK   58  A    between atoms: _133  and  _136
REMARK   59  A    between atoms: _136  and  _137
REMARK   60  A    between atoms: _140  and  _142
REMARK   61  A    between atoms: _142  and  _143
REMARK   62  A    between atoms: _142  and  _145
REMARK   63  A    between atoms: _145  and  _146
REMARK   64  A    between atoms: _149  and  _151
REMARK   65  A    between atoms: _151  and  _152
REMARK   66  A    between atoms: _151  and  _154
REMARK   67  A    between atoms: _154  and  _155
REMARK   68  A    between atoms: _155  and  _156
REMARK   69  A    between atoms: _156  and  _157
REMARK   70  A    between atoms: _166  and  _168
REMARK   71  A    between atoms: _168  and  _169
REMARK   72  A    between atoms: _168  and  _171
REMARK   73  A    between atoms: _171  and  _172
REMARK   74  A    between atoms: _172  and  _173
REMARK   75  A    between atoms: _176  and  _178
REMARK   76  A    between atoms: _178  and  _179
REMARK   77  A    between atoms: _178  and  _181
REMARK   78  A    between atoms: _181  and  _182
REMARK   79  A    between atoms: _182  and  _183
REMARK   80  A    between atoms: _189  and  _190
REMARK   81  A    between atoms: _195  and  _197
REMARK   82  A    between atoms: _197  and  _198
REMARK   83  A    between atoms: _197  and  _200
REMARK   84  A    between atoms: _200  and  _201
REMARK   85  A    between atoms: _204  and  _206
REMARK   86  A    between atoms: _206  and  _207
REMARK   87  A    between atoms: _209  and  _211
REMARK   88  A    between atoms: _211  and  _212
REMARK   89  A    between atoms: _214  and  _216
REMARK   90  A    between atoms: _216  and  _217
REMARK   91  A    between atoms: _216  and  _219
REMARK   92  A    between atoms: _219  and  _220
REMARK   93  A    between atoms: _230  and  _232
REMARK   94  A    between atoms: _232  and  _233
REMARK   95  A    between atoms: _232  and  _235
REMARK   96  A    between atoms: _235  and  _236
REMARK   97  A    between atoms: _236  and  _237
REMARK   98  A    between atoms: _237  and  _238
REMARK   99  A    between atoms: _238  and  _239
REMARK  100  A    between atoms: _243  and  _245
REMARK  101  A    between atoms: _245  and  _246
REMARK  102  A    between atoms: _249  and  _251
REMARK  103  A    between atoms: _251  and  _252
REMARK  104  A    between atoms: _251  and  _254
REMARK  105  A    between atoms: _254  and  _255
REMARK  106  A    between atoms: _260  and  _262
REMARK  107  A    between atoms: _262  and  _263
REMARK  108  A    between atoms: _262  and  _265
REMARK  109  A    between atoms: _265  and  _266
REMARK  110  A    between atoms: _266  and  _267
REMARK  111  A    between atoms: _267  and  _268
REMARK  112  A    between atoms: _277  and  _279
REMARK  113  A    between atoms: _279  and  _280
REMARK  114  A    between atoms: _279  and  _282
REMARK  115  A    between atoms: _282  and  _283
REMARK  116  A    between atoms: _286  and  _288
REMARK  117  A    between atoms: _288  and  _289
REMARK  118  A    between atoms: _288  and  _291
REMARK  119  A    between atoms: _291  and  _292
REMARK  120  A    between atoms: _295  and  _297
REMARK  121  A    between atoms: _297  and  _298
REMARK  122  A    between atoms: _297  and  _300
REMARK  123  A    between atoms: _300  and  _301
REMARK  124  A    between atoms: _304  and  _306
REMARK  125  A    between atoms: _306  and  _307
REMARK  126  A    between atoms: _306  and  _309
REMARK  127  A    between atoms: _309  and  _310
REMARK  128  A    between atoms: _313  and  _315
REMARK  129  A    between atoms: _315  and  _316
REMARK  130  A    between atoms: _315  and  _318
REMARK  131  A    between atoms: _318  and  _319
REMARK  132  A    between atoms: _319  and  _320
REMARK  133  A    between atoms: _322  and  _324
REMARK  134  A    between atoms: _324  and  _325
REMARK  135  A    between atoms: _324  and  _327
REMARK  136  A    between atoms: _327  and  _328
REMARK  137  A    between atoms: _331  and  _333
REMARK  138  A    between atoms: _333  and  _334
REMARK  139  A    between atoms: _333  and  _336
REMARK  140  A    between atoms: _338  and  _340
REMARK  141  A    between atoms: _340  and  _341
REMARK  142  A    between atoms: _340  and  _343
REMARK  143  A    between atoms: _343  and  _344
REMARK  144  A    between atoms: _344  and  _345
REMARK  145  A    between atoms: _345  and  _346
REMARK  146  A    between atoms: _355  and  _357
REMARK  147  A    between atoms: _357  and  _358
REMARK  148  A    between atoms: _360  and  _362
REMARK  149  A    between atoms: _362  and  _363
REMARK  150  A    between atoms: _362  and  _365
REMARK  151  A    between atoms: _365  and  _366
REMARK                            x       y       z     vdW  Elec       q    Type
REMARK                         _______ _______ _______ _____ _____    ______ ____
ROOT
ATOM      1  C   MET A   1      89.329   5.638  38.794  0.00  0.00    +0.238 C 
ATOM      2  N   LEU A   2      88.744   6.276  39.799  0.00  0.00    -0.298 N 
ATOM      3  H   LEU A   2      89.107   6.138  40.764  0.00  0.00    +0.150 HD
ATOM      4  O   MET A   1      88.946   5.749  37.632  0.00  0.00    -0.274 OA
ENDROOT
BRANCH   1   5
ATOM      5  CA  MET A   1      90.569   4.791  39.136  0.00  0.00    +0.146 C 
BRANCH   5   6
ATOM      6  N   MET A   1      91.442   5.472  40.075  0.00  0.00    -0.238 NA
ATOM      7  H   MET A   1      91.665   5.025  40.987  0.00  0.00    +0.142 HD
ENDBRANCH   5   6
BRANCH   5   8
ATOM      8  CB  MET A   1      90.187   3.426  39.672  0.00  0.00    +0.038 C 
BRANCH   8   9
ATOM      9  CG  MET A   1      89.484   2.570  38.665  0.00  0.00    +0.060 C 
BRANCH   9  10
ATOM     10  SD  MET A   1      88.947   1.008  39.369  0.00  0.00    -0.139 S 
ATOM     11  CE  MET A   1      87.833   0.523  38.090  0.00  0.00    +0.069 C 
ENDBRANCH   9  10
ENDBRANCH   8   9
ENDBRANCH   5   8
ENDBRANCH   1   5
BRANCH   2  12
ATOM     12  CA  LEU A   2      87.603   7.168  39.590  0.00  0.00    +0.137 C 
BRANCH  12  13
ATOM     13  C   LEU A   2      87.902   8.312  38.628  0.00  0.00    +0.227 C 
ATOM     14  O   LEU A   2      87.158   8.547  37.684  0.00  0.00    -0.286 OA
ENDBRANCH  12  13
BRANCH  12  15
ATOM     15  CB  LEU A   2      87.173   7.761  40.933  0.00  0.00    +0.028 C 
BRANCH  15  16
ATOM     16  CG  LEU A   2      86.171   8.916  40.840  0.00  0.00    +0.002 C 
ATOM     17  CD2 LEU A   2      86.106   9.636  42.173  0.00  0.00    +0.000 C 
ATOM     18  CD1 LEU A   2      84.802   8.349  40.452  0.00  0.00    +0.000 C 
ENDBRANCH  15  16
ENDBRANCH  12  15
ENDBRANCH   2  12
TORSDOF 9
REMARK  Name = ../refined-set-2016/2bo4/2bo4_pocket.pdb
REMARK  151 active torsions:
REMARK  status: ('A' for Active; 'I' for Inactive)
REMARK    1  A    between atoms: _1  and  _3
REMARK    2  A    between atoms: _3  and  _4
REMARK    3  A    between atoms: _3  and  _6
REMARK    4  A    between atoms: _6  and  _7
REMARK    5  A    between atoms: _7  and  _8
REMARK    6  A    between atoms: _8  and  _9
REMARK    7  A    between atoms: _9  and  _10
REMARK    8  A    between atoms: _14  and  _16
REMARK    9  A    between atoms: _16  and  _17
REMARK   10  A    between atoms: _16  and  _19
REMARK   11  A    between atoms: _19  and  _20
REMARK   12  A    between atoms: _23  and  _25
REMARK   13  A    between atoms: _25  and  _26
REMARK   14  A    between atoms: _25  and  _28
REMARK   15  A    between atoms: _28  and  _29
REMARK   16  A    between atoms: _32  and  _34
REMARK   17  A    between atoms: _34  and  _35
REMARK   18  A    between atoms: _34  and  _37
REMARK   19  A    between atoms: _37  and  _38
REMARK   20  A    between atoms: _38  and  _39
REMARK   21  A    between atoms: _39  and  _40
REMARK   22  A    between atoms: _49  and  _51
REMARK   23  A    between atoms: _51  and  _52
REMARK   24  A    between atoms: _55  and  _57
REMARK   25  A    between atoms: _57  and  _58
REMARK   26  A    between atoms: _57  and  _60
REMARK   27  A    between atoms: _60  and  _61
REMARK   28  A    between atoms: _64  and  _66
REMARK   29  A    between atoms: _66  and  _67
REMARK   30  A    between atoms: _66  and  _69
REMARK   31  A    between atoms: _69  and  _70
REMARK   32  A    between atoms: _73  and  _75
REMARK   33  A    between atoms: _75  and  _76
REMARK   34  A    between atoms: _79  and  _81
REMARK   35  A    between atoms: _81  and  _82
REMARK   36  A    between atoms: _81  and  _84
REMARK   37  A    between atoms: _84  and  _85
REMARK   38  A    between atoms: _85  and  _86
REMARK   39  A    between atoms: _88  and  _90
REMARK   40  A    between atoms: _90  and  _91
REMARK   41  A    between atoms: _90  and  _93
REMARK   42  A    between atoms: _93  and  _94
REMARK   43  A    between atoms: _97  and  _99
REMARK   44  A    between atoms: _99  and  _100
REMARK   45  A    between atoms: _99  and  _102
REMARK   46  A    between atoms: _102  and  _103
REMARK   47  A    between atoms: _106  and  _108
REMARK   48  A    between atoms: _108  and  _109
REMARK   49  A    between atoms: _108  and  _111
REMARK   50  A    between atoms: _111  and  _112
REMARK   51  A    between atoms: _122  and  _124
REMARK   52  A    between atoms: _124  and  _125
REMARK   53  A    between atoms: _124  and  _127
REMARK   54  A    between atoms: _127  and  _128
REMARK   55  A    between atoms: _128  and  _129
REMARK   56  A    between atoms: _131  and  _133
REMARK   57  A    between atoms: _133  and  _134
REMARK   58  A    between atoms: _133  and  _136
REMARK   59  A    between atoms: _136  and  _137
REMARK   60  A    between atoms: _140  and  _142
REMARK   61  A    between atoms: _142  and  _143
REMARK   62  A    between atoms: _142  and  _145
REMARK   63  A    between atoms: _145  and  _146
REMARK   64  A    between atoms: _149  and  _151
REMARK   65  A    between atoms: _151  and  _152
REMARK   66  A    between atoms: _151  and  _154
REMARK   67  A    between atoms: _154  and  _155
REMARK   68  A    between atoms: _155  and  _156
REMARK   69  A    between atoms: _156  and  _157
REMARK   70  A    between atoms: _166  and  _168
REMARK   71  A    between atoms: _168  and  _169
REMARK   72  A    between atoms: _168  and  _171
REMARK   73  A    between atoms: _171  and  _172
REMARK   74  A    between atoms: _172  and  _173
REMARK   75  A    between atoms: _176  and  _178
REMARK   76  A    between atoms: _178  and  _179
REMARK   77  A    between atoms: _178  and  _181
REMARK   78  A    between atoms: _181  and  _182
REMARK   79  A    between atoms: _182  and  _183
REMARK   80  A    between atoms: _189  and  _190
REMARK   81  A    between atoms: _195  and  _197
REMARK   82  A    between atoms: _197  and  _198
REMARK   83  A    between atoms: _197  and  _200
REMARK   84  A    between atoms: _200  and  _201
REMARK   85  A    between atoms: _204  and  _206
REMARK   86  A    between atoms: _206  and  _207
REMARK   87  A    between atoms: _209  and  _211
REMARK   88  A    between atoms: _211  and  _212
REMARK   89  A    between atoms: _214  and  _216
REMARK   90  A    between atoms: _216  and  _217
REMARK   91  A    between atoms: _216  and  _219
REMARK   92  A    between atoms: _219  and  _220
REMARK   93  A    between atoms: _230  and  _232
REMARK   94  A    between atoms: _232  and  _233
REMARK   95  A    between atoms: _232  and  _235
REMARK   96  A    between atoms: _235  and  _236
REMARK   97  A    between atoms: _236  and  _237
REMARK   98  A    between atoms: _237  and  _238
REMARK   99  A    between atoms: _238  and  _239
REMARK  100  A    between atoms: _243  and  _245
REMARK  101  A    between atoms: _245  and  _246
REMARK  102  A    between atoms: _249  and  _251
REMARK  103  A    between atoms: _251  and  _252
REMARK  104  A    between atoms: _251  and  _254
REMARK  105  A    between atoms: _254  and  _255
REMARK  106  A    between atoms: _260  and  _262
REMARK  107  A    between atoms: _262  and  _263
REMARK  108  A    between atoms: _262  and  _265
REMARK  109  A    between atoms: _265  and  _266
REMARK  110  A    between atoms: _266  and  _267
REMARK  111  A    between atoms: _267  and  _268
REMARK  112  A    between atoms: _277  and  _279
REMARK  113  A    between atoms: _279  and  _280
REMARK  114  A    between atoms: _279  and  _282
REMARK  115  A    between atoms: _282  and  _283
REMARK  116  A    between atoms: _286  and  _288
REMARK  117  A    between atoms: _288  and  _289
REMARK  118  A    between atoms: _288  and  _291
REMARK  119  A    between atoms: _291  and  _292
REMARK  120  A    between atoms: _295  and  _297
REMARK  121  A    between atoms: _297  and  _298
REMARK  122  A    between atoms: _297  and  _300
REMARK  123  A    between atoms: _300  and  _301
REMARK  124  A    between atoms: _304  and  _306
REMARK  125  A    between atoms: _306  and  _307
REMARK  126  A    between atoms: _306  and  _309
REMARK  127  A    between atoms: _309  and  _310
REMARK  128  A    between atoms: _313  and  _315
REMARK  129  A    between atoms: _315  and  _316
REMARK  130  A    between atoms: _315  and  _318
REMARK  131  A    between atoms: _318  and  _319
REMARK  132  A    between atoms: _319  and  _320
REMARK  133  A    between atoms: _322  and  _324
REMARK  134  A    between atoms: _324  and  _325
REMARK  135  A    between atoms: _324  and  _327
REMARK  136  A    between atoms: _327  and  _328
REMARK  137  A    between atoms: _331  and  _333
REMARK  138  A    between atoms: _333  and  _334
REMARK  139  A    between atoms: _333  and  _336
REMARK  140  A    between atoms: _338  and  _340
REMARK  141  A    between atoms: _340  and  _341
REMARK  142  A    between atoms: _340  and  _343
REMARK  143  A    between atoms: _343  and  _344
REMARK  144  A    between atoms: _344  and  _345
REMARK  145  A    between atoms: _345  and  _346
REMARK  146  A    between atoms: _355  and  _357
REMARK  147  A    between atoms: _357  and  _358
REMARK  148  A    between atoms: _360  and  _362
REMARK  149  A    between atoms: _362  and  _363
REMARK  150  A    between atoms: _362  and  _365
REMARK  151  A    between atoms: _365  and  _366
REMARK                            x       y       z     vdW  Elec       q    Type
REMARK                         _______ _______ _______ _____ _____    ______ ____
ROOT
ATOM      1  CA  CYS A   1      87.315   6.401  34.477  0.00  0.00    +0.145 C 
ENDROOT
BRANCH   1   2
ATOM      2  N   CYS A   1      88.517   6.947  35.107  0.00  0.00    -0.238 NA
ATOM      3  H   CYS A   1      88.668   6.816  36.128  0.00  0.00    +0.142 HD
ENDBRANCH   1   2
BRANCH   1   4
ATOM      4  CB  CYS A   1      86.617   5.404  35.388  0.00  0.00    +0.094 C 
ATOM      5  SG  CYS A   1      87.539   3.852  35.482  0.00  0.00    -0.080 S 
ENDBRANCH   1   4
BRANCH   1   6
ATOM      6  C   CYS A   1      86.368   7.516  34.053  0.00  0.00    +0.225 C 
ATOM      7  O   CYS A   1      85.803   7.471  32.953  0.00  0.00    -0.287 OA
ENDBRANCH   1   6
TORSDOF 3
REMARK  Name = ../refined-set-2016/2bo4/2bo4_pocket.pdb
REMARK  151 active torsions:
REMARK  status: ('A' for Active; 'I' for Inactive)
REMARK    1  A    between atoms: _1  and  _3
REMARK    2  A    between atoms: _3  and  _4
REMARK    3  A    between atoms: _3  and  _6
REMARK    4  A    between atoms: _6  and  _7
REMARK    5  A    between atoms: _7  and  _8
REMARK    6  A    between atoms: _8  and  _9
REMARK    7  A    between atoms: _9  and  _10
REMARK    8  A    between atoms: _14  and  _16
REMARK    9  A    between atoms: _16  and  _17
REMARK   10  A    between atoms: _16  and  _19
REMARK   11  A    between atoms: _19  and  _20
REMARK   12  A    between atoms: _23  and  _25
REMARK   13  A    between atoms: _25  and  _26
REMARK   14  A    between atoms: _25  and  _28
REMARK   15  A    between atoms: _28  and  _29
REMARK   16  A    between atoms: _32  and  _34
REMARK   17  A    between atoms: _34  and  _35
REMARK   18  A    between atoms: _34  and  _37
REMARK   19  A    between atoms: _37  and  _38
REMARK   20  A    between atoms: _38  and  _39
REMARK   21  A    between atoms: _39  and  _40
REMARK   22  A    between atoms: _49  and  _51
REMARK   23  A    between atoms: _51  and  _52
REMARK   24  A    between atoms: _55  and  _57
REMARK   25  A    between atoms: _57  and  _58
REMARK   26  A    between atoms: _57  and  _60
REMARK   27  A    between atoms: _60  and  _61
REMARK   28  A    between atoms: _64  and  _66
REMARK   29  A    between atoms: _66  and  _67
REMARK   30  A    between atoms: _66  and  _69
REMARK   31  A    between atoms: _69  and  _70
REMARK   32  A    between atoms: _73  and  _75
REMARK   33  A    between atoms: _75  and  _76
REMARK   34  A    between atoms: _79  and  _81
REMARK   35  A    between atoms: _81  and  _82
REMARK   36  A    between atoms: _81  and  _84
REMARK   37  A    between atoms: _84  and  _85
REMARK   38  A    between atoms: _85  and  _86
REMARK   39  A    between atoms: _88  and  _90
REMARK   40  A    between atoms: _90  and  _91
REMARK   41  A    between atoms: _90  and  _93
REMARK   42  A    between atoms: _93  and  _94
REMARK   43  A    between atoms: _97  and  _99
REMARK   44  A    between atoms: _99  and  _100
REMARK   45  A    between atoms: _99  and  _102
REMARK   46  A    between atoms: _102  and  _103
REMARK   47  A    between atoms: _106  and  _108
REMARK   48  A    between atoms: _108  and  _109
REMARK   49  A    between atoms: _108  and  _111
REMARK   50  A    between atoms: _111  and  _112
REMARK   51  A    between atoms: _122  and  _124
REMARK   52  A    between atoms: _124  and  _125
REMARK   53  A    between atoms: _124  and  _127
REMARK   54  A    between atoms: _127  and  _128
REMARK   55  A    between atoms: _128  and  _129
REMARK   56  A    between atoms: _131  and  _133
REMARK   57  A    between atoms: _133  and  _134
REMARK   58  A    between atoms: _133  and  _136
REMARK   59  A    between atoms: _136  and  _137
REMARK   60  A    between atoms: _140  and  _142
REMARK   61  A    between atoms: _142  and  _143
REMARK   62  A    between atoms: _142  and  _145
REMARK   63  A    between atoms: _145  and  _146
REMARK   64  A    between atoms: _149  and  _151
REMARK   65  A    between atoms: _151  and  _152
REMARK   66  A    between atoms: _151  and  _154
REMARK   67  A    between atoms: _154  and  _155
REMARK   68  A    between atoms: _155  and  _156
REMARK   69  A    between atoms: _156  and  _157
REMARK   70  A    between atoms: _166  and  _168
REMARK   71  A    between atoms: _168  and  _169
REMARK   72  A    between atoms: _168  and  _171
REMARK   73  A    between atoms: _171  and  _172
REMARK   74  A    between atoms: _172  and  _173
REMARK   75  A    between atoms: _176  and  _178
REMARK   76  A    between atoms: _178  and  _179
REMARK   77  A    between atoms: _178  and  _181
REMARK   78  A    between atoms: _181  and  _182
REMARK   79  A    between atoms: _182  and  _183
REMARK   80  A    between atoms: _189  and  _190
REMARK   81  A    between atoms: _195  and  _197
REMARK   82  A    between atoms: _197  and  _198
REMARK   83  A    between atoms: _197  and  _200
REMARK   84  A    between atoms: _200  and  _201
REMARK   85  A    between atoms: _204  and  _206
REMARK   86  A    between atoms: _206  and  _207
REMARK   87  A    between atoms: _209  and  _211
REMARK   88  A    between atoms: _211  and  _212
REMARK   89  A    between atoms: _214  and  _216
REMARK   90  A    between atoms: _216  and  _217
REMARK   91  A    between atoms: _216  and  _219
REMARK   92  A    between atoms: _219  and  _220
REMARK   93  A    between atoms: _230  and  _232
REMARK   94  A    between atoms: _232  and  _233
REMARK   95  A    between atoms: _232  and  _235
REMARK   96  A    between atoms: _235  and  _236
REMARK   97  A    between atoms: _236  and  _237
REMARK   98  A    between atoms: _237  and  _238
REMARK   99  A    between atoms: _238  and  _239
REMARK  100  A    between atoms: _243  and  _245
REMARK  101  A    between atoms: _245  and  _246
REMARK  102  A    between atoms: _249  and  _251
REMARK  103  A    between atoms: _251  and  _252
REMARK  104  A    between atoms: _251  and  _254
REMARK  105  A    between atoms: _254  and  _255
REMARK  106  A    between atoms: _260  and  _262
REMARK  107  A    between atoms: _262  and  _263
REMARK  108  A    between atoms: _262  and  _265
REMARK  109  A    between atoms: _265  and  _266
REMARK  110  A    between atoms: _266  and  _267
REMARK  111  A    between atoms: _267  and  _268
REMARK  112  A    between atoms: _277  and  _279
REMARK  113  A    between atoms: _279  and  _280
REMARK  114  A    between atoms: _279  and  _282
REMARK  115  A    between atoms: _282  and  _283
REMARK  116  A    between atoms: _286  and  _288
REMARK  117  A    between atoms: _288  and  _289
REMARK  118  A    between atoms: _288  and  _291
REMARK  119  A    between atoms: _291  and  _292
REMARK  120  A    between atoms: _295  and  _297
REMARK  121  A    between atoms: _297  and  _298
REMARK  122  A    between atoms: _297  and  _300
REMARK  123  A    between atoms: _300  and  _301
REMARK  124  A    between atoms: _304  and  _306
REMARK  125  A    between atoms: _306  and  _307
REMARK  126  A    between atoms: _306  and  _309
REMARK  127  A    between atoms: _309  and  _310
REMARK  128  A    between atoms: _313  and  _315
REMARK  129  A    between atoms: _315  and  _316
REMARK  130  A    between atoms: _315  and  _318
REMARK  131  A    between atoms: _318  and  _319
REMARK  132  A    between atoms: _319  and  _320
REMARK  133  A    between atoms: _322  and  _324
REMARK  134  A    between atoms: _324  and  _325
REMARK  135  A    between atoms: _324  and  _327
REMARK  136  A    between atoms: _327  and  _328
REMARK  137  A    between atoms: _331  and  _333
REMARK  138  A    between atoms: _333  and  _334
REMARK  139  A    between atoms: _333  and  _336
REMARK  140  A    between atoms: _338  and  _340
REMARK  141  A    between atoms: _340  and  _341
REMARK  142  A    between atoms: _340  and  _343
REMARK  143  A    between atoms: _343  and  _344
REMARK  144  A    between atoms: _344  and  _345
REMARK  145  A    between atoms: _345  and  _346
REMARK  146  A    between atoms: _355  and  _357
REMARK  147  A    between atoms: _357  and  _358
REMARK  148  A    between atoms: _360  and  _362
REMARK  149  A    between atoms: _362  and  _363
REMARK  150  A    between atoms: _362  and  _365
REMARK  151  A    between atoms: _365  and  _366
REMARK                            x       y       z     vdW  Elec       q    Type
REMARK                         _______ _______ _______ _____ _____    ______ ____
ROOT
ATOM      1  NE  ARG A   1      83.069  -6.995  48.645  0.00  0.00    -0.265 N 
ATOM      2  CZ  ARG A   1      84.125  -6.486  49.271  0.00  0.00    +0.342 C 
ATOM      3  NH2 ARG A   1      84.539  -6.976  50.435  0.00  0.00    -0.292 N 
ATOM      4 HH21 ARG A   1      85.368  -6.563  50.908  0.00  0.00    +0.255 HD
ATOM      5 HH22 ARG A   1      84.034  -7.773  50.873  0.00  0.00    +0.255 HD
ATOM      6  NH1 ARG A   1      84.786  -5.480  48.720  0.00  0.00    -0.292 N 
ATOM      7 HH11 ARG A   1      85.614  -5.075  49.203  0.00  0.00    +0.255 HD
ATOM      8 HH12 ARG A   1      84.478  -5.094  47.805  0.00  0.00    +0.255 HD
ATOM      9  HE  ARG A   1      82.817  -6.596  47.718  0.00  0.00    +0.259 HD
ENDROOT
BRANCH   1  10
ATOM     10  CD  ARG A   1      82.241  -8.072  49.166  0.00  0.00    +0.174 C 
BRANCH  10  11
ATOM     11  CG  ARG A   1      81.352  -7.565  50.328  0.00  0.00    +0.045 C 
BRANCH  11  12
ATOM     12  CB  ARG A   1      80.160  -8.441  50.591  0.00  0.00    +0.029 C 
BRANCH  12  13
ATOM     13  CA  ARG A   1      79.289  -8.056  51.806  0.00  0.00    +0.133 C 
BRANCH  13  14
ATOM     14  N   ARG A   1      78.012  -8.760  51.726  0.00  0.00    -0.239 NA
ATOM     15  H   ARG A   1      77.640  -9.021  50.790  0.00  0.00    +0.142 HD
ENDBRANCH  13  14
BRANCH  13  16
ATOM     16  C   ARG A   1      79.096  -6.529  51.861  0.00  0.00    +0.224 C 
ATOM     17  O   ARG A   1      78.231  -5.981  51.186  0.00  0.00    -0.287 OA
ENDBRANCH  13  16
ENDBRANCH  12  13
ENDBRANCH  11  12
ENDBRANCH  10  11
ENDBRANCH   1  10
TORSDOF 6
REMARK  Name = ../refined-set-2016/2bo4/2bo4_pocket.pdb
REMARK  151 active torsions:
REMARK  status: ('A' for Active; 'I' for Inactive)
REMARK    1  A    between atoms: _1  and  _3
REMARK    2  A    between atoms: _3  and  _4
REMARK    3  A    between atoms: _3  and  _6
REMARK    4  A    between atoms: _6  and  _7
REMARK    5  A    between atoms: _7  and  _8
REMARK    6  A    between atoms: _8  and  _9
REMARK    7  A    between atoms: _9  and  _10
REMARK    8  A    between atoms: _14  and  _16
REMARK    9  A    between atoms: _16  and  _17
REMARK   10  A    between atoms: _16  and  _19
REMARK   11  A    between atoms: _19  and  _20
REMARK   12  A    between atoms: _23  and  _25
REMARK   13  A    between atoms: _25  and  _26
REMARK   14  A    between atoms: _25  and  _28
REMARK   15  A    between atoms: _28  and  _29
REMARK   16  A    between atoms: _32  and  _34
REMARK   17  A    between atoms: _34  and  _35
REMARK   18  A    between atoms: _34  and  _37
REMARK   19  A    between atoms: _37  and  _38
REMARK   20  A    between atoms: _38  and  _39
REMARK   21  A    between atoms: _39  and  _40
REMARK   22  A    between atoms: _49  and  _51
REMARK   23  A    between atoms: _51  and  _52
REMARK   24  A    between atoms: _55  and  _57
REMARK   25  A    between atoms: _57  and  _58
REMARK   26  A    between atoms: _57  and  _60
REMARK   27  A    between atoms: _60  and  _61
REMARK   28  A    between atoms: _64  and  _66
REMARK   29  A    between atoms: _66  and  _67
REMARK   30  A    between atoms: _66  and  _69
REMARK   31  A    between atoms: _69  and  _70
REMARK   32  A    between atoms: _73  and  _75
REMARK   33  A    between atoms: _75  and  _76
REMARK   34  A    between atoms: _79  and  _81
REMARK   35  A    between atoms: _81  and  _82
REMARK   36  A    between atoms: _81  and  _84
REMARK   37  A    between atoms: _84  and  _85
REMARK   38  A    between atoms: _85  and  _86
REMARK   39  A    between atoms: _88  and  _90
REMARK   40  A    between atoms: _90  and  _91
REMARK   41  A    between atoms: _90  and  _93
REMARK   42  A    between atoms: _93  and  _94
REMARK   43  A    between atoms: _97  and  _99
REMARK   44  A    between atoms: _99  and  _100
REMARK   45  A    between atoms: _99  and  _102
REMARK   46  A    between atoms: _102  and  _103
REMARK   47  A    between atoms: _106  and  _108
REMARK   48  A    between atoms: _108  and  _109
REMARK   49  A    between atoms: _108  and  _111
REMARK   50  A    between atoms: _111  and  _112
REMARK   51  A    between atoms: _122  and  _124
REMARK   52  A    between atoms: _124  and  _125
REMARK   53  A    between atoms: _124  and  _127
REMARK   54  A    between atoms: _127  and  _128
REMARK   55  A    between atoms: _128  and  _129
REMARK   56  A    between atoms: _131  and  _133
REMARK   57  A    between atoms: _133  and  _134
REMARK   58  A    between atoms: _133  and  _136
REMARK   59  A    between atoms: _136  and  _137
REMARK   60  A    between atoms: _140  and  _142
REMARK   61  A    between atoms: _142  and  _143
REMARK   62  A    between atoms: _142  and  _145
REMARK   63  A    between atoms: _145  and  _146
REMARK   64  A    between atoms: _149  and  _151
REMARK   65  A    between atoms: _151  and  _152
REMARK   66  A    between atoms: _151  and  _154
REMARK   67  A    between atoms: _154  and  _155
REMARK   68  A    between atoms: _155  and  _156
REMARK   69  A    between atoms: _156  and  _157
REMARK   70  A    between atoms: _166  and  _168
REMARK   71  A    between atoms: _168  and  _169
REMARK   72  A    between atoms: _168  and  _171
REMARK   73  A    between atoms: _171  and  _172
REMARK   74  A    between atoms: _172  and  _173
REMARK   75  A    between atoms: _176  and  _178
REMARK   76  A    between atoms: _178  and  _179
REMARK   77  A    between atoms: _178  and  _181
REMARK   78  A    between atoms: _181  and  _182
REMARK   79  A    between atoms: _182  and  _183
REMARK   80  A    between atoms: _189  and  _190
REMARK   81  A    between atoms: _195  and  _197
REMARK   82  A    between atoms: _197  and  _198
REMARK   83  A    between atoms: _197  and  _200
REMARK   84  A    between atoms: _200  and  _201
REMARK   85  A    between atoms: _204  and  _206
REMARK   86  A    between atoms: _206  and  _207
REMARK   87  A    between atoms: _209  and  _211
REMARK   88  A    between atoms: _211  and  _212
REMARK   89  A    between atoms: _214  and  _216
REMARK   90  A    between atoms: _216  and  _217
REMARK   91  A    between atoms: _216  and  _219
REMARK   92  A    between atoms: _219  and  _220
REMARK   93  A    between atoms: _230  and  _232
REMARK   94  A    between atoms: _232  and  _233
REMARK   95  A    between atoms: _232  and  _235
REMARK   96  A    between atoms: _235  and  _236
REMARK   97  A    between atoms: _236  and  _237
REMARK   98  A    between atoms: _237  and  _238
REMARK   99  A    between atoms: _238  and  _239
REMARK  100  A    between atoms: _243  and  _245
REMARK  101  A    between atoms: _245  and  _246
REMARK  102  A    between atoms: _249  and  _251
REMARK  103  A    between atoms: _251  and  _252
REMARK  104  A    between atoms: _251  and  _254
REMARK  105  A    between atoms: _254  and  _255
REMARK  106  A    between atoms: _260  and  _262
REMARK  107  A    between atoms: _262  and  _263
REMARK  108  A    between atoms: _262  and  _265
REMARK  109  A    between atoms: _265  and  _266
REMARK  110  A    between atoms: _266  and  _267
REMARK  111  A    between atoms: _267  and  _268
REMARK  112  A    between atoms: _277  and  _279
REMARK  113  A    between atoms: _279  and  _280
REMARK  114  A    between atoms: _279  and  _282
REMARK  115  A    between atoms: _282  and  _283
REMARK  116  A    between atoms: _286  and  _288
REMARK  117  A    between atoms: _288  and  _289
REMARK  118  A    between atoms: _288  and  _291
REMARK  119  A    between atoms: _291  and  _292
REMARK  120  A    between atoms: _295  and  _297
REMARK  121  A    between atoms: _297  and  _298
REMARK  122  A    between atoms: _297  and  _300
REMARK  123  A    between atoms: _300  and  _301
REMARK  124  A    between atoms: _304  and  _306
REMARK  125  A    between atoms: _306  and  _307
REMARK  126  A    between atoms: _306  and  _309
REMARK  127  A    between atoms: _309  and  _310
REMARK  128  A    between atoms: _313  and  _315
REMARK  129  A    between atoms: _315  and  _316
REMARK  130  A    between atoms: _315  and  _318
REMARK  131  A    between atoms: _318  and  _319
REMARK  132  A    between atoms: _319  and  _320
REMARK  133  A    between atoms: _322  and  _324
REMARK  134  A    between atoms: _324  and  _325
REMARK  135  A    between atoms: _324  and  _327
REMARK  136  A    between atoms: _327  and  _328
REMARK  137  A    between atoms: _331  and  _333
REMARK  138  A    between atoms: _333  and  _334
REMARK  139  A    between atoms: _333  and  _336
REMARK  140  A    between atoms: _338  and  _340
REMARK  141  A    between atoms: _340  and  _341
REMARK  142  A    between atoms: _340  and  _343
REMARK  143  A    between atoms: _343  and  _344
REMARK  144  A    between atoms: _344  and  _345
REMARK  145  A    between atoms: _345  and  _346
REMARK  146  A    between atoms: _355  and  _357
REMARK  147  A    between atoms: _357  and  _358
REMARK  148  A    between atoms: _360  and  _362
REMARK  149  A    between atoms: _362  and  _363
REMARK  150  A    between atoms: _362  and  _365
REMARK  151  A    between atoms: _365  and  _366
REMARK                            x       y       z     vdW  Elec       q    Type
REMARK                         _______ _______ _______ _____ _____    ______ ____
ROOT
ATOM      1  CA  GLY A   1      82.390  -2.976  50.042  0.00  0.00    +0.156 C 
ENDROOT
BRANCH   1   2
ATOM      2  N   GLY A   1      81.300  -3.197  50.974  0.00  0.00    -0.238 NA
ATOM      3  H   GLY A   1      80.412  -2.674  50.836  0.00  0.00    +0.142 HD
ENDBRANCH   1   2
BRANCH   1   4
ATOM      4  C   GLY A   1      83.364  -1.869  50.385  0.00  0.00    +0.226 C 
ATOM      5  O   GLY A   1      84.376  -1.736  49.708  0.00  0.00    -0.287 OA
ENDBRANCH   1   4
TORSDOF 2
REMARK  Name = ../refined-set-2016/2bo4/2bo4_pocket.pdb
REMARK  151 active torsions:
REMARK  status: ('A' for Active; 'I' for Inactive)
REMARK    1  A    between atoms: _1  and  _3
REMARK    2  A    between atoms: _3  and  _4
REMARK    3  A    between atoms: _3  and  _6
REMARK    4  A    between atoms: _6  and  _7
REMARK    5  A    between atoms: _7  and  _8
REMARK    6  A    between atoms: _8  and  _9
REMARK    7  A    between atoms: _9  and  _10
REMARK    8  A    between atoms: _14  and  _16
REMARK    9  A    between atoms: _16  and  _17
REMARK   10  A    between atoms: _16  and  _19
REMARK   11  A    between atoms: _19  and  _20
REMARK   12  A    between atoms: _23  and  _25
REMARK   13  A    between atoms: _25  and  _26
REMARK   14  A    between atoms: _25  and  _28
REMARK   15  A    between atoms: _28  and  _29
REMARK   16  A    between atoms: _32  and  _34
REMARK   17  A    between atoms: _34  and  _35
REMARK   18  A    between atoms: _34  and  _37
REMARK   19  A    between atoms: _37  and  _38
REMARK   20  A    between atoms: _38  and  _39
REMARK   21  A    between atoms: _39  and  _40
REMARK   22  A    between atoms: _49  and  _51
REMARK   23  A    between atoms: _51  and  _52
REMARK   24  A    between atoms: _55  and  _57
REMARK   25  A    between atoms: _57  and  _58
REMARK   26  A    between atoms: _57  and  _60
REMARK   27  A    between atoms: _60  and  _61
REMARK   28  A    between atoms: _64  and  _66
REMARK   29  A    between atoms: _66  and  _67
REMARK   30  A    between atoms: _66  and  _69
REMARK   31  A    between atoms: _69  and  _70
REMARK   32  A    between atoms: _73  and  _75
REMARK   33  A    between atoms: _75  and  _76
REMARK   34  A    between atoms: _79  and  _81
REMARK   35  A    between atoms: _81  and  _82
REMARK   36  A    between atoms: _81  and  _84
REMARK   37  A    between atoms: _84  and  _85
REMARK   38  A    between atoms: _85  and  _86
REMARK   39  A    between atoms: _88  and  _90
REMARK   40  A    between atoms: _90  and  _91
REMARK   41  A    between atoms: _90  and  _93
REMARK   42  A    between atoms: _93  and  _94
REMARK   43  A    between atoms: _97  and  _99
REMARK   44  A    between atoms: _99  and  _100
REMARK   45  A    between atoms: _99  and  _102
REMARK   46  A    between atoms: _102  and  _103
REMARK   47  A    between atoms: _106  and  _108
REMARK   48  A    between atoms: _108  and  _109
REMARK   49  A    between atoms: _108  and  _111
REMARK   50  A    between atoms: _111  and  _112
REMARK   51  A    between atoms: _122  and  _124
REMARK   52  A    between atoms: _124  and  _125
REMARK   53  A    between atoms: _124  and  _127
REMARK   54  A    between atoms: _127  and  _128
REMARK   55  A    between atoms: _128  and  _129
REMARK   56  A    between atoms: _131  and  _133
REMARK   57  A    between atoms: _133  and  _134
REMARK   58  A    between atoms: _133  and  _136
REMARK   59  A    between atoms: _136  and  _137
REMARK   60  A    between atoms: _140  and  _142
REMARK   61  A    between atoms: _142  and  _143
REMARK   62  A    between atoms: _142  and  _145
REMARK   63  A    between atoms: _145  and  _146
REMARK   64  A    between atoms: _149  and  _151
REMARK   65  A    between atoms: _151  and  _152
REMARK   66  A    between atoms: _151  and  _154
REMARK   67  A    between atoms: _154  and  _155
REMARK   68  A    between atoms: _155  and  _156
REMARK   69  A    between atoms: _156  and  _157
REMARK   70  A    between atoms: _166  and  _168
REMARK   71  A    between atoms: _168  and  _169
REMARK   72  A    between atoms: _168  and  _171
REMARK   73  A    between atoms: _171  and  _172
REMARK   74  A    between atoms: _172  and  _173
REMARK   75  A    between atoms: _176  and  _178
REMARK   76  A    between atoms: _178  and  _179
REMARK   77  A    between atoms: _178  and  _181
REMARK   78  A    between atoms: _181  and  _182
REMARK   79  A    between atoms: _182  and  _183
REMARK   80  A    between atoms: _189  and  _190
REMARK   81  A    between atoms: _195  and  _197
REMARK   82  A    between atoms: _197  and  _198
REMARK   83  A    between atoms: _197  and  _200
REMARK   84  A    between atoms: _200  and  _201
REMARK   85  A    between atoms: _204  and  _206
REMARK   86  A    between atoms: _206  and  _207
REMARK   87  A    between atoms: _209  and  _211
REMARK   88  A    between atoms: _211  and  _212
REMARK   89  A    between atoms: _214  and  _216
REMARK   90  A    between atoms: _216  and  _217
REMARK   91  A    between atoms: _216  and  _219
REMARK   92  A    between atoms: _219  and  _220
REMARK   93  A    between atoms: _230  and  _232
REMARK   94  A    between atoms: _232  and  _233
REMARK   95  A    between atoms: _232  and  _235
REMARK   96  A    between atoms: _235  and  _236
REMARK   97  A    between atoms: _236  and  _237
REMARK   98  A    between atoms: _237  and  _238
REMARK   99  A    between atoms: _238  and  _239
REMARK  100  A    between atoms: _243  and  _245
REMARK  101  A    between atoms: _245  and  _246
REMARK  102  A    between atoms: _249  and  _251
REMARK  103  A    between atoms: _251  and  _252
REMARK  104  A    between atoms: _251  and  _254
REMARK  105  A    between atoms: _254  and  _255
REMARK  106  A    between atoms: _260  and  _262
REMARK  107  A    between atoms: _262  and  _263
REMARK  108  A    between atoms: _262  and  _265
REMARK  109  A    between atoms: _265  and  _266
REMARK  110  A    between atoms: _266  and  _267
REMARK  111  A    between atoms: _267  and  _268
REMARK  112  A    between atoms: _277  and  _279
REMARK  113  A    between atoms: _279  and  _280
REMARK  114  A    between atoms: _279  and  _282
REMARK  115  A    between atoms: _282  and  _283
REMARK  116  A    between atoms: _286  and  _288
REMARK  117  A    between atoms: _288  and  _289
REMARK  118  A    between atoms: _288  and  _291
REMARK  119  A    between atoms: _291  and  _292
REMARK  120  A    between atoms: _295  and  _297
REMARK  121  A    between atoms: _297  and  _298
REMARK  122  A    between atoms: _297  and  _300
REMARK  123  A    between atoms: _300  and  _301
REMARK  124  A    between atoms: _304  and  _306
REMARK  125  A    between atoms: _306  and  _307
REMARK  126  A    between atoms: _306  and  _309
REMARK  127  A    between atoms: _309  and  _310
REMARK  128  A    between atoms: _313  and  _315
REMARK  129  A    between atoms: _315  and  _316
REMARK  130  A    between atoms: _315  and  _318
REMARK  131  A    between atoms: _318  and  _319
REMARK  132  A    between atoms: _319  and  _320
REMARK  133  A    between atoms: _322  and  _324
REMARK  134  A    between atoms: _324  and  _325
REMARK  135  A    between atoms: _324  and  _327
REMARK  136  A    between atoms: _327  and  _328
REMARK  137  A    between atoms: _331  and  _333
REMARK  138  A    between atoms: _333  and  _334
REMARK  139  A    between atoms: _333  and  _336
REMARK  140  A    between atoms: _338  and  _340
REMARK  141  A    between atoms: _340  and  _341
REMARK  142  A    between atoms: _340  and  _343
REMARK  143  A    between atoms: _343  and  _344
REMARK  144  A    between atoms: _344  and  _345
REMARK  145  A    between atoms: _345  and  _346
REMARK  146  A    between atoms: _355  and  _357
REMARK  147  A    between atoms: _357  and  _358
REMARK  148  A    between atoms: _360  and  _362
REMARK  149  A    between atoms: _362  and  _363
REMARK  150  A    between atoms: _362  and  _365
REMARK  151  A    between atoms: _365  and  _366
REMARK                            x       y       z     vdW  Elec       q    Type
REMARK                         _______ _______ _______ _____ _____    ______ ____
ROOT
ATOM      1  CG  TRP A   1      82.278   8.816  43.071  0.00  0.00    -0.002 A 
ATOM      2  CD2 TRP A   1      83.099   7.810  43.674  0.00  0.00    +0.013 A 
ATOM      3  CE3 TRP A   1      84.194   7.840  44.546  0.00  0.00    +0.001 A 
ATOM      4  CZ3 TRP A   1      84.789   6.652  44.913  0.00  0.00    +0.000 A 
ATOM      5  CH2 TRP A   1      84.310   5.422  44.432  0.00  0.00    +0.001 A 
ATOM      6  CZ2 TRP A   1      83.234   5.355  43.591  0.00  0.00    +0.017 A 
ATOM      7  CE2 TRP A   1      82.642   6.560  43.211  0.00  0.00    +0.056 A 
ATOM      8  NE1 TRP A   1      81.588   6.801  42.375  0.00  0.00    -0.352 N 
ATOM      9  HE1 TRP A   1      81.036   6.076  41.874  0.00  0.00    +0.166 HD
ATOM     10  CD1 TRP A   1      81.376   8.156  42.304  0.00  0.00    +0.068 A 
ENDROOT
BRANCH   1  11
ATOM     11  CB  TRP A   1      82.411  10.293  43.242  0.00  0.00    +0.053 C 
BRANCH  11  12
ATOM     12  CA  TRP A   1      81.287  10.963  44.023  0.00  0.00    +0.137 C 
BRANCH  12  13
ATOM     13  N   TRP A   1      81.567  12.380  44.174  0.00  0.00    -0.239 NA
ATOM     14  H   TRP A   1      82.466  12.754  43.810  0.00  0.00    +0.142 HD
ENDBRANCH  12  13
BRANCH  12  15
ATOM     15  C   TRP A   1      81.110  10.294  45.381  0.00  0.00    +0.224 C 
ATOM     16  O   TRP A   1      80.217   9.465  45.550  0.00  0.00    -0.287 OA
ENDBRANCH  12  15
ENDBRANCH  11  12
ENDBRANCH   1  11
TORSDOF 4
REMARK  Name = ../refined-set-2016/2bo4/2bo4_pocket.pdb
REMARK  151 active torsions:
REMARK  status: ('A' for Active; 'I' for Inactive)
REMARK    1  A    between atoms: _1  and  _3
REMARK    2  A    between atoms: _3  and  _4
REMARK    3  A    between atoms: _3  and  _6
REMARK    4  A    between atoms: _6  and  _7
REMARK    5  A    between atoms: _7  and  _8
REMARK    6  A    between atoms: _8  and  _9
REMARK    7  A    between atoms: _9  and  _10
REMARK    8  A    between atoms: _14  and  _16
REMARK    9  A    between atoms: _16  and  _17
REMARK   10  A    between atoms: _16  and  _19
REMARK   11  A    between atoms: _19  and  _20
REMARK   12  A    between atoms: _23  and  _25
REMARK   13  A    between atoms: _25  and  _26
REMARK   14  A    between atoms: _25  and  _28
REMARK   15  A    between atoms: _28  and  _29
REMARK   16  A    between atoms: _32  and  _34
REMARK   17  A    between atoms: _34  and  _35
REMARK   18  A    between atoms: _34  and  _37
REMARK   19  A    between atoms: _37  and  _38
REMARK   20  A    between atoms: _38  and  _39
REMARK   21  A    between atoms: _39  and  _40
REMARK   22  A    between atoms: _49  and  _51
REMARK   23  A    between atoms: _51  and  _52
REMARK   24  A    between atoms: _55  and  _57
REMARK   25  A    between atoms: _57  and  _58
REMARK   26  A    between atoms: _57  and  _60
REMARK   27  A    between atoms: _60  and  _61
REMARK   28  A    between atoms: _64  and  _66
REMARK   29  A    between atoms: _66  and  _67
REMARK   30  A    between atoms: _66  and  _69
REMARK   31  A    between atoms: _69  and  _70
REMARK   32  A    between atoms: _73  and  _75
REMARK   33  A    between atoms: _75  and  _76
REMARK   34  A    between atoms: _79  and  _81
REMARK   35  A    between atoms: _81  and  _82
REMARK   36  A    between atoms: _81  and  _84
REMARK   37  A    between atoms: _84  and  _85
REMARK   38  A    between atoms: _85  and  _86
REMARK   39  A    between atoms: _88  and  _90
REMARK   40  A    between atoms: _90  and  _91
REMARK   41  A    between atoms: _90  and  _93
REMARK   42  A    between atoms: _93  and  _94
REMARK   43  A    between atoms: _97  and  _99
REMARK   44  A    between atoms: _99  and  _100
REMARK   45  A    between atoms: _99  and  _102
REMARK   46  A    between atoms: _102  and  _103
REMARK   47  A    between atoms: _106  and  _108
REMARK   48  A    between atoms: _108  and  _109
REMARK   49  A    between atoms: _108  and  _111
REMARK   50  A    between atoms: _111  and  _112
REMARK   51  A    between atoms: _122  and  _124
REMARK   52  A    between atoms: _124  and  _125
REMARK   53  A    between atoms: _124  and  _127
REMARK   54  A    between atoms: _127  and  _128
REMARK   55  A    between atoms: _128  and  _129
REMARK   56  A    between atoms: _131  and  _133
REMARK   57  A    between atoms: _133  and  _134
REMARK   58  A    between atoms: _133  and  _136
REMARK   59  A    between atoms: _136  and  _137
REMARK   60  A    between atoms: _140  and  _142
REMARK   61  A    between atoms: _142  and  _143
REMARK   62  A    between atoms: _142  and  _145
REMARK   63  A    between atoms: _145  and  _146
REMARK   64  A    between atoms: _149  and  _151
REMARK   65  A    between atoms: _151  and  _152
REMARK   66  A    between atoms: _151  and  _154
REMARK   67  A    between atoms: _154  and  _155
REMARK   68  A    between atoms: _155  and  _156
REMARK   69  A    between atoms: _156  and  _157
REMARK   70  A    between atoms: _166  and  _168
REMARK   71  A    between atoms: _168  and  _169
REMARK   72  A    between atoms: _168  and  _171
REMARK   73  A    between atoms: _171  and  _172
REMARK   74  A    between atoms: _172  and  _173
REMARK   75  A    between atoms: _176  and  _178
REMARK   76  A    between atoms: _178  and  _179
REMARK   77  A    between atoms: _178  and  _181
REMARK   78  A    between atoms: _181  and  _182
REMARK   79  A    between atoms: _182  and  _183
REMARK   80  A    between atoms: _189  and  _190
REMARK   81  A    between atoms: _195  and  _197
REMARK   82  A    between atoms: _197  and  _198
REMARK   83  A    between atoms: _197  and  _200
REMARK   84  A    between atoms: _200  and  _201
REMARK   85  A    between atoms: _204  and  _206
REMARK   86  A    between atoms: _206  and  _207
REMARK   87  A    between atoms: _209  and  _211
REMARK   88  A    between atoms: _211  and  _212
REMARK   89  A    between atoms: _214  and  _216
REMARK   90  A    between atoms: _216  and  _217
REMARK   91  A    between atoms: _216  and  _219
REMARK   92  A    between atoms: _219  and  _220
REMARK   93  A    between atoms: _230  and  _232
REMARK   94  A    between atoms: _232  and  _233
REMARK   95  A    between atoms: _232  and  _235
REMARK   96  A    between atoms: _235  and  _236
REMARK   97  A    between atoms: _236  and  _237
REMARK   98  A    between atoms: _237  and  _238
REMARK   99  A    between atoms: _238  and  _239
REMARK  100  A    between atoms: _243  and  _245
REMARK  101  A    between atoms: _245  and  _246
REMARK  102  A    between atoms: _249  and  _251
REMARK  103  A    between atoms: _251  and  _252
REMARK  104  A    between atoms: _251  and  _254
REMARK  105  A    between atoms: _254  and  _255
REMARK  106  A    between atoms: _260  and  _262
REMARK  107  A    between atoms: _262  and  _263
REMARK  108  A    between atoms: _262  and  _265
REMARK  109  A    between atoms: _265  and  _266
REMARK  110  A    between atoms: _266  and  _267
REMARK  111  A    between atoms: _267  and  _268
REMARK  112  A    between atoms: _277  and  _279
REMARK  113  A    between atoms: _279  and  _280
REMARK  114  A    between atoms: _279  and  _282
REMARK  115  A    between atoms: _282  and  _283
REMARK  116  A    between atoms: _286  and  _288
REMARK  117  A    between atoms: _288  and  _289
REMARK  118  A    between atoms: _288  and  _291
REMARK  119  A    between atoms: _291  and  _292
REMARK  120  A    between atoms: _295  and  _297
REMARK  121  A    between atoms: _297  and  _298
REMARK  122  A    between atoms: _297  and  _300
REMARK  123  A    between atoms: _300  and  _301
REMARK  124  A    between atoms: _304  and  _306
REMARK  125  A    between atoms: _306  and  _307
REMARK  126  A    between atoms: _306  and  _309
REMARK  127  A    between atoms: _309  and  _310
REMARK  128  A    between atoms: _313  and  _315
REMARK  129  A    between atoms: _315  and  _316
REMARK  130  A    between atoms: _315  and  _318
REMARK  131  A    between atoms: _318  and  _319
REMARK  132  A    between atoms: _319  and  _320
REMARK  133  A    between atoms: _322  and  _324
REMARK  134  A    between atoms: _324  and  _325
REMARK  135  A    between atoms: _324  and  _327
REMARK  136  A    between atoms: _327  and  _328
REMARK  137  A    between atoms: _331  and  _333
REMARK  138  A    between atoms: _333  and  _334
REMARK  139  A    between atoms: _333  and  _336
REMARK  140  A    between atoms: _338  and  _340
REMARK  141  A    between atoms: _340  and  _341
REMARK  142  A    between atoms: _340  and  _343
REMARK  143  A    between atoms: _343  and  _344
REMARK  144  A    between atoms: _344  and  _345
REMARK  145  A    between atoms: _345  and  _346
REMARK  146  A    between atoms: _355  and  _357
REMARK  147  A    between atoms: _357  and  _358
REMARK  148  A    between atoms: _360  and  _362
REMARK  149  A    between atoms: _362  and  _363
REMARK  150  A    between atoms: _362  and  _365
REMARK  151  A    between atoms: _365  and  _366
REMARK                            x       y       z     vdW  Elec       q    Type
REMARK                         _______ _______ _______ _____ _____    ______ ____
ROOT
ATOM      1  O   HOH     1      91.158  -4.659  35.660  0.00  0.00    +0.000 OA
ENDROOT
TORSDOF 0
REMARK  Name = ../refined-set-2016/2bo4/2bo4_pocket.pdb
REMARK  151 active torsions:
REMARK  status: ('A' for Active; 'I' for Inactive)
REMARK    1  A    between atoms: _1  and  _3
REMARK    2  A    between atoms: _3  and  _4
REMARK    3  A    between atoms: _3  and  _6
REMARK    4  A    between atoms: _6  and  _7
REMARK    5  A    between atoms: _7  and  _8
REMARK    6  A    between atoms: _8  and  _9
REMARK    7  A    between atoms: _9  and  _10
REMARK    8  A    between atoms: _14  and  _16
REMARK    9  A    between atoms: _16  and  _17
REMARK   10  A    between atoms: _16  and  _19
REMARK   11  A    between atoms: _19  and  _20
REMARK   12  A    between atoms: _23  and  _25
REMARK   13  A    between atoms: _25  and  _26
REMARK   14  A    between atoms: _25  and  _28
REMARK   15  A    between atoms: _28  and  _29
REMARK   16  A    between atoms: _32  and  _34
REMARK   17  A    between atoms: _34  and  _35
REMARK   18  A    between atoms: _34  and  _37
REMARK   19  A    between atoms: _37  and  _38
REMARK   20  A    between atoms: _38  and  _39
REMARK   21  A    between atoms: _39  and  _40
REMARK   22  A    between atoms: _49  and  _51
REMARK   23  A    between atoms: _51  and  _52
REMARK   24  A    between atoms: _55  and  _57
REMARK   25  A    between atoms: _57  and  _58
REMARK   26  A    between atoms: _57  and  _60
REMARK   27  A    between atoms: _60  and  _61
REMARK   28  A    between atoms: _64  and  _66
REMARK   29  A    between atoms: _66  and  _67
REMARK   30  A    between atoms: _66  and  _69
REMARK   31  A    between atoms: _69  and  _70
REMARK   32  A    between atoms: _73  and  _75
REMARK   33  A    between atoms: _75  and  _76
REMARK   34  A    between atoms: _79  and  _81
REMARK   35  A    between atoms: _81  and  _82
REMARK   36  A    between atoms: _81  and  _84
REMARK   37  A    between atoms: _84  and  _85
REMARK   38  A    between atoms: _85  and  _86
REMARK   39  A    between atoms: _88  and  _90
REMARK   40  A    between atoms: _90  and  _91
REMARK   41  A    between atoms: _90  and  _93
REMARK   42  A    between atoms: _93  and  _94
REMARK   43  A    between atoms: _97  and  _99
REMARK   44  A    between atoms: _99  and  _100
REMARK   45  A    between atoms: _99  and  _102
REMARK   46  A    between atoms: _102  and  _103
REMARK   47  A    between atoms: _106  and  _108
REMARK   48  A    between atoms: _108  and  _109
REMARK   49  A    between atoms: _108  and  _111
REMARK   50  A    between atoms: _111  and  _112
REMARK   51  A    between atoms: _122  and  _124
REMARK   52  A    between atoms: _124  and  _125
REMARK   53  A    between atoms: _124  and  _127
REMARK   54  A    between atoms: _127  and  _128
REMARK   55  A    between atoms: _128  and  _129
REMARK   56  A    between atoms: _131  and  _133
REMARK   57  A    between atoms: _133  and  _134
REMARK   58  A    between atoms: _133  and  _136
REMARK   59  A    between atoms: _136  and  _137
REMARK   60  A    between atoms: _140  and  _142
REMARK   61  A    between atoms: _142  and  _143
REMARK   62  A    between atoms: _142  and  _145
REMARK   63  A    between atoms: _145  and  _146
REMARK   64  A    between atoms: _149  and  _151
REMARK   65  A    between atoms: _151  and  _152
REMARK   66  A    between atoms: _151  and  _154
REMARK   67  A    between atoms: _154  and  _155
REMARK   68  A    between atoms: _155  and  _156
REMARK   69  A    between atoms: _156  and  _157
REMARK   70  A    between atoms: _166  and  _168
REMARK   71  A    between atoms: _168  and  _169
REMARK   72  A    between atoms: _168  and  _171
REMARK   73  A    between atoms: _171  and  _172
REMARK   74  A    between atoms: _172  and  _173
REMARK   75  A    between atoms: _176  and  _178
REMARK   76  A    between atoms: _178  and  _179
REMARK   77  A    between atoms: _178  and  _181
REMARK   78  A    between atoms: _181  and  _182
REMARK   79  A    between atoms: _182  and  _183
REMARK   80  A    between atoms: _189  and  _190
REMARK   81  A    between atoms: _195  and  _197
REMARK   82  A    between atoms: _197  and  _198
REMARK   83  A    between atoms: _197  and  _200
REMARK   84  A    between atoms: _200  and  _201
REMARK   85  A    between atoms: _204  and  _206
REMARK   86  A    between atoms: _206  and  _207
REMARK   87  A    between atoms: _209  and  _211
REMARK   88  A    between atoms: _211  and  _212
REMARK   89  A    between atoms: _214  and  _216
REMARK   90  A    between atoms: _216  and  _217
REMARK   91  A    between atoms: _216  and  _219
REMARK   92  A    between atoms: _219  and  _220
REMARK   93  A    between atoms: _230  and  _232
REMARK   94  A    between atoms: _232  and  _233
REMARK   95  A    between atoms: _232  and  _235
REMARK   96  A    between atoms: _235  and  _236
REMARK   97  A    between atoms: _236  and  _237
REMARK   98  A    between atoms: _237  and  _238
REMARK   99  A    between atoms: _238  and  _239
REMARK  100  A    between atoms: _243  and  _245
REMARK  101  A    between atoms: _245  and  _246
REMARK  102  A    between atoms: _249  and  _251
REMARK  103  A    between atoms: _251  and  _252
REMARK  104  A    between atoms: _251  and  _254
REMARK  105  A    between atoms: _254  and  _255
REMARK  106  A    between atoms: _260  and  _262
REMARK  107  A    between atoms: _262  and  _263
REMARK  108  A    between atoms: _262  and  _265
REMARK  109  A    between atoms: _265  and  _266
REMARK  110  A    between atoms: _266  and  _267
REMARK  111  A    between atoms: _267  and  _268
REMARK  112  A    between atoms: _277  and  _279
REMARK  113  A    between atoms: _279  and  _280
REMARK  114  A    between atoms: _279  and  _282
REMARK  115  A    between atoms: _282  and  _283
REMARK  116  A    between atoms: _286  and  _288
REMARK  117  A    between atoms: _288  and  _289
REMARK  118  A    between atoms: _288  and  _291
REMARK  119  A    between atoms: _291  and  _292
REMARK  120  A    between atoms: _295  and  _297
REMARK  121  A    between atoms: _297  and  _298
REMARK  122  A    between atoms: _297  and  _300
REMARK  123  A    between atoms: _300  and  _301
REMARK  124  A    between atoms: _304  and  _306
REMARK  125  A    between atoms: _306  and  _307
REMARK  126  A    between atoms: _306  and  _309
REMARK  127  A    between atoms: _309  and  _310
REMARK  128  A    between atoms: _313  and  _315
REMARK  129  A    between atoms: _315  and  _316
REMARK  130  A    between atoms: _315  and  _318
REMARK  131  A    between atoms: _318  and  _319
REMARK  132  A    between atoms: _319  and  _320
REMARK  133  A    between atoms: _322  and  _324
REMARK  134  A    between atoms: _324  and  _325
REMARK  135  A    between atoms: _324  and  _327
REMARK  136  A    between atoms: _327  and  _328
REMARK  137  A    between atoms: _331  and  _333
REMARK  138  A    between atoms: _333  and  _334
REMARK  139  A    between atoms: _333  and  _336
REMARK  140  A    between atoms: _338  and  _340
REMARK  141  A    between atoms: _340  and  _341
REMARK  142  A    between atoms: _340  and  _343
REMARK  143  A    between atoms: _343  and  _344
REMARK  144  A    between atoms: _344  and  _345
REMARK  145  A    between atoms: _345  and  _346
REMARK  146  A    between atoms: _355  and  _357
REMARK  147  A    between atoms: _357  and  _358
REMARK  148  A    between atoms: _360  and  _362
REMARK  149  A    between atoms: _362  and  _363
REMARK  150  A    between atoms: _362  and  _365
REMARK  151  A    between atoms: _365  and  _366
REMARK                            x       y       z     vdW  Elec       q    Type
REMARK                         _______ _______ _______ _____ _____    ______ ____
ROOT
ATOM      1  O   HOH     1      88.394  -7.070  36.274  0.00  0.00    +0.000 OA
ENDROOT
TORSDOF 0
REMARK  Name = ../refined-set-2016/2bo4/2bo4_pocket.pdb
REMARK  151 active torsions:
REMARK  status: ('A' for Active; 'I' for Inactive)
REMARK    1  A    between atoms: _1  and  _3
REMARK    2  A    between atoms: _3  and  _4
REMARK    3  A    between atoms: _3  and  _6
REMARK    4  A    between atoms: _6  and  _7
REMARK    5  A    between atoms: _7  and  _8
REMARK    6  A    between atoms: _8  and  _9
REMARK    7  A    between atoms: _9  and  _10
REMARK    8  A    between atoms: _14  and  _16
REMARK    9  A    between atoms: _16  and  _17
REMARK   10  A    between atoms: _16  and  _19
REMARK   11  A    between atoms: _19  and  _20
REMARK   12  A    between atoms: _23  and  _25
REMARK   13  A    between atoms: _25  and  _26
REMARK   14  A    between atoms: _25  and  _28
REMARK   15  A    between atoms: _28  and  _29
REMARK   16  A    between atoms: _32  and  _34
REMARK   17  A    between atoms: _34  and  _35
REMARK   18  A    between atoms: _34  and  _37
REMARK   19  A    between atoms: _37  and  _38
REMARK   20  A    between atoms: _38  and  _39
REMARK   21  A    between atoms: _39  and  _40
REMARK   22  A    between atoms: _49  and  _51
REMARK   23  A    between atoms: _51  and  _52
REMARK   24  A    between atoms: _55  and  _57
REMARK   25  A    between atoms: _57  and  _58
REMARK   26  A    between atoms: _57  and  _60
REMARK   27  A    between atoms: _60  and  _61
REMARK   28  A    between atoms: _64  and  _66
REMARK   29  A    between atoms: _66  and  _67
REMARK   30  A    between atoms: _66  and  _69
REMARK   31  A    between atoms: _69  and  _70
REMARK   32  A    between atoms: _73  and  _75
REMARK   33  A    between atoms: _75  and  _76
REMARK   34  A    between atoms: _79  and  _81
REMARK   35  A    between atoms: _81  and  _82
REMARK   36  A    between atoms: _81  and  _84
REMARK   37  A    between atoms: _84  and  _85
REMARK   38  A    between atoms: _85  and  _86
REMARK   39  A    between atoms: _88  and  _90
REMARK   40  A    between atoms: _90  and  _91
REMARK   41  A    between atoms: _90  and  _93
REMARK   42  A    between atoms: _93  and  _94
REMARK   43  A    between atoms: _97  and  _99
REMARK   44  A    between atoms: _99  and  _100
REMARK   45  A    between atoms: _99  and  _102
REMARK   46  A    between atoms: _102  and  _103
REMARK   47  A    between atoms: _106  and  _108
REMARK   48  A    between atoms: _108  and  _109
REMARK   49  A    between atoms: _108  and  _111
REMARK   50  A    between atoms: _111  and  _112
REMARK   51  A    between atoms: _122  and  _124
REMARK   52  A    between atoms: _124  and  _125
REMARK   53  A    between atoms: _124  and  _127
REMARK   54  A    between atoms: _127  and  _128
REMARK   55  A    between atoms: _128  and  _129
REMARK   56  A    between atoms: _131  and  _133
REMARK   57  A    between atoms: _133  and  _134
REMARK   58  A    between atoms: _133  and  _136
REMARK   59  A    between atoms: _136  and  _137
REMARK   60  A    between atoms: _140  and  _142
REMARK   61  A    between atoms: _142  and  _143
REMARK   62  A    between atoms: _142  and  _145
REMARK   63  A    between atoms: _145  and  _146
REMARK   64  A    between atoms: _149  and  _151
REMARK   65  A    between atoms: _151  and  _152
REMARK   66  A    between atoms: _151  and  _154
REMARK   67  A    between atoms: _154  and  _155
REMARK   68  A    between atoms: _155  and  _156
REMARK   69  A    between atoms: _156  and  _157
REMARK   70  A    between atoms: _166  and  _168
REMARK   71  A    between atoms: _168  and  _169
REMARK   72  A    between atoms: _168  and  _171
REMARK   73  A    between atoms: _171  and  _172
REMARK   74  A    between atoms: _172  and  _173
REMARK   75  A    between atoms: _176  and  _178
REMARK   76  A    between atoms: _178  and  _179
REMARK   77  A    between atoms: _178  and  _181
REMARK   78  A    between atoms: _181  and  _182
REMARK   79  A    between atoms: _182  and  _183
REMARK   80  A    between atoms: _189  and  _190
REMARK   81  A    between atoms: _195  and  _197
REMARK   82  A    between atoms: _197  and  _198
REMARK   83  A    between atoms: _197  and  _200
REMARK   84  A    between atoms: _200  and  _201
REMARK   85  A    between atoms: _204  and  _206
REMARK   86  A    between atoms: _206  and  _207
REMARK   87  A    between atoms: _209  and  _211
REMARK   88  A    between atoms: _211  and  _212
REMARK   89  A    between atoms: _214  and  _216
REMARK   90  A    between atoms: _216  and  _217
REMARK   91  A    between atoms: _216  and  _219
REMARK   92  A    between atoms: _219  and  _220
REMARK   93  A    between atoms: _230  and  _232
REMARK   94  A    between atoms: _232  and  _233
REMARK   95  A    between atoms: _232  and  _235
REMARK   96  A    between atoms: _235  and  _236
REMARK   97  A    between atoms: _236  and  _237
REMARK   98  A    between atoms: _237  and  _238
REMARK   99  A    between atoms: _238  and  _239
REMARK  100  A    between atoms: _243  and  _245
REMARK  101  A    between atoms: _245  and  _246
REMARK  102  A    between atoms: _249  and  _251
REMARK  103  A    between atoms: _251  and  _252
REMARK  104  A    between atoms: _251  and  _254
REMARK  105  A    between atoms: _254  and  _255
REMARK  106  A    between atoms: _260  and  _262
REMARK  107  A    between atoms: _262  and  _263
REMARK  108  A    between atoms: _262  and  _265
REMARK  109  A    between atoms: _265  and  _266
REMARK  110  A    between atoms: _266  and  _267
REMARK  111  A    between atoms: _267  and  _268
REMARK  112  A    between atoms: _277  and  _279
REMARK  113  A    between atoms: _279  and  _280
REMARK  114  A    between atoms: _279  and  _282
REMARK  115  A    between atoms: _282  and  _283
REMARK  116  A    between atoms: _286  and  _288
REMARK  117  A    between atoms: _288  and  _289
REMARK  118  A    between atoms: _288  and  _291
REMARK  119  A    between atoms: _291  and  _292
REMARK  120  A    between atoms: _295  and  _297
REMARK  121  A    between atoms: _297  and  _298
REMARK  122  A    between atoms: _297  and  _300
REMARK  123  A    between atoms: _300  and  _301
REMARK  124  A    between atoms: _304  and  _306
REMARK  125  A    between atoms: _306  and  _307
REMARK  126  A    between atoms: _306  and  _309
REMARK  127  A    between atoms: _309  and  _310
REMARK  128  A    between atoms: _313  and  _315
REMARK  129  A    between atoms: _315  and  _316
REMARK  130  A    between atoms: _315  and  _318
REMARK  131  A    between atoms: _318  and  _319
REMARK  132  A    between atoms: _319  and  _320
REMARK  133  A    between atoms: _322  and  _324
REMARK  134  A    between atoms: _324  and  _325
REMARK  135  A    between atoms: _324  and  _327
REMARK  136  A    between atoms: _327  and  _328
REMARK  137  A    between atoms: _331  and  _333
REMARK  138  A    between atoms: _333  and  _334
REMARK  139  A    between atoms: _333  and  _336
REMARK  140  A    between atoms: _338  and  _340
REMARK  141  A    between atoms: _340  and  _341
REMARK  142  A    between atoms: _340  and  _343
REMARK  143  A    between atoms: _343  and  _344
REMARK  144  A    between atoms: _344  and  _345
REMARK  145  A    between atoms: _345  and  _346
REMARK  146  A    between atoms: _355  and  _357
REMARK  147  A    between atoms: _357  and  _358
REMARK  148  A    between atoms: _360  and  _362
REMARK  149  A    between atoms: _362  and  _363
REMARK  150  A    between atoms: _362  and  _365
REMARK  151  A    between atoms: _365  and  _366
REMARK                            x       y       z     vdW  Elec       q    Type
REMARK                         _______ _______ _______ _____ _____    ______ ____
ROOT
ATOM      1  O   HOH     1      82.318 -11.000  42.470  0.00  0.00    +0.000 OA
ENDROOT
TORSDOF 0
REMARK  Name = ../refined-set-2016/2bo4/2bo4_pocket.pdb
REMARK  151 active torsions:
REMARK  status: ('A' for Active; 'I' for Inactive)
REMARK    1  A    between atoms: _1  and  _3
REMARK    2  A    between atoms: _3  and  _4
REMARK    3  A    between atoms: _3  and  _6
REMARK    4  A    between atoms: _6  and  _7
REMARK    5  A    between atoms: _7  and  _8
REMARK    6  A    between atoms: _8  and  _9
REMARK    7  A    between atoms: _9  and  _10
REMARK    8  A    between atoms: _14  and  _16
REMARK    9  A    between atoms: _16  and  _17
REMARK   10  A    between atoms: _16  and  _19
REMARK   11  A    between atoms: _19  and  _20
REMARK   12  A    between atoms: _23  and  _25
REMARK   13  A    between atoms: _25  and  _26
REMARK   14  A    between atoms: _25  and  _28
REMARK   15  A    between atoms: _28  and  _29
REMARK   16  A    between atoms: _32  and  _34
REMARK   17  A    between atoms: _34  and  _35
REMARK   18  A    between atoms: _34  and  _37
REMARK   19  A    between atoms: _37  and  _38
REMARK   20  A    between atoms: _38  and  _39
REMARK   21  A    between atoms: _39  and  _40
REMARK   22  A    between atoms: _49  and  _51
REMARK   23  A    between atoms: _51  and  _52
REMARK   24  A    between atoms: _55  and  _57
REMARK   25  A    between atoms: _57  and  _58
REMARK   26  A    between atoms: _57  and  _60
REMARK   27  A    between atoms: _60  and  _61
REMARK   28  A    between atoms: _64  and  _66
REMARK   29  A    between atoms: _66  and  _67
REMARK   30  A    between atoms: _66  and  _69
REMARK   31  A    between atoms: _69  and  _70
REMARK   32  A    between atoms: _73  and  _75
REMARK   33  A    between atoms: _75  and  _76
REMARK   34  A    between atoms: _79  and  _81
REMARK   35  A    between atoms: _81  and  _82
REMARK   36  A    between atoms: _81  and  _84
REMARK   37  A    between atoms: _84  and  _85
REMARK   38  A    between atoms: _85  and  _86
REMARK   39  A    between atoms: _88  and  _90
REMARK   40  A    between atoms: _90  and  _91
REMARK   41  A    between atoms: _90  and  _93
REMARK   42  A    between atoms: _93  and  _94
REMARK   43  A    between atoms: _97  and  _99
REMARK   44  A    between atoms: _99  and  _100
REMARK   45  A    between atoms: _99  and  _102
REMARK   46  A    between atoms: _102  and  _103
REMARK   47  A    between atoms: _106  and  _108
REMARK   48  A    between atoms: _108  and  _109
REMARK   49  A    between atoms: _108  and  _111
REMARK   50  A    between atoms: _111  and  _112
REMARK   51  A    between atoms: _122  and  _124
REMARK   52  A    between atoms: _124  and  _125
REMARK   53  A    between atoms: _124  and  _127
REMARK   54  A    between atoms: _127  and  _128
REMARK   55  A    between atoms: _128  and  _129
REMARK   56  A    between atoms: _131  and  _133
REMARK   57  A    between atoms: _133  and  _134
REMARK   58  A    between atoms: _133  and  _136
REMARK   59  A    between atoms: _136  and  _137
REMARK   60  A    between atoms: _140  and  _142
REMARK   61  A    between atoms: _142  and  _143
REMARK   62  A    between atoms: _142  and  _145
REMARK   63  A    between atoms: _145  and  _146
REMARK   64  A    between atoms: _149  and  _151
REMARK   65  A    between atoms: _151  and  _152
REMARK   66  A    between atoms: _151  and  _154
REMARK   67  A    between atoms: _154  and  _155
REMARK   68  A    between atoms: _155  and  _156
REMARK   69  A    between atoms: _156  and  _157
REMARK   70  A    between atoms: _166  and  _168
REMARK   71  A    between atoms: _168  and  _169
REMARK   72  A    between atoms: _168  and  _171
REMARK   73  A    between atoms: _171  and  _172
REMARK   74  A    between atoms: _172  and  _173
REMARK   75  A    between atoms: _176  and  _178
REMARK   76  A    between atoms: _178  and  _179
REMARK   77  A    between atoms: _178  and  _181
REMARK   78  A    between atoms: _181  and  _182
REMARK   79  A    between atoms: _182  and  _183
REMARK   80  A    between atoms: _189  and  _190
REMARK   81  A    between atoms: _195  and  _197
REMARK   82  A    between atoms: _197  and  _198
REMARK   83  A    between atoms: _197  and  _200
REMARK   84  A    between atoms: _200  and  _201
REMARK   85  A    between atoms: _204  and  _206
REMARK   86  A    between atoms: _206  and  _207
REMARK   87  A    between atoms: _209  and  _211
REMARK   88  A    between atoms: _211  and  _212
REMARK   89  A    between atoms: _214  and  _216
REMARK   90  A    between atoms: _216  and  _217
REMARK   91  A    between atoms: _216  and  _219
REMARK   92  A    between atoms: _219  and  _220
REMARK   93  A    between atoms: _230  and  _232
REMARK   94  A    between atoms: _232  and  _233
REMARK   95  A    between atoms: _232  and  _235
REMARK   96  A    between atoms: _235  and  _236
REMARK   97  A    between atoms: _236  and  _237
REMARK   98  A    between atoms: _237  and  _238
REMARK   99  A    between atoms: _238  and  _239
REMARK  100  A    between atoms: _243  and  _245
REMARK  101  A    between atoms: _245  and  _246
REMARK  102  A    between atoms: _249  and  _251
REMARK  103  A    between atoms: _251  and  _252
REMARK  104  A    between atoms: _251  and  _254
REMARK  105  A    between atoms: _254  and  _255
REMARK  106  A    between atoms: _260  and  _262
REMARK  107  A    between atoms: _262  and  _263
REMARK  108  A    between atoms: _262  and  _265
REMARK  109  A    between atoms: _265  and  _266
REMARK  110  A    between atoms: _266  and  _267
REMARK  111  A    between atoms: _267  and  _268
REMARK  112  A    between atoms: _277  and  _279
REMARK  113  A    between atoms: _279  and  _280
REMARK  114  A    between atoms: _279  and  _282
REMARK  115  A    between atoms: _282  and  _283
REMARK  116  A    between atoms: _286  and  _288
REMARK  117  A    between atoms: _288  and  _289
REMARK  118  A    between atoms: _288  and  _291
REMARK  119  A    between atoms: _291  and  _292
REMARK  120  A    between atoms: _295  and  _297
REMARK  121  A    between atoms: _297  and  _298
REMARK  122  A    between atoms: _297  and  _300
REMARK  123  A    between atoms: _300  and  _301
REMARK  124  A    between atoms: _304  and  _306
REMARK  125  A    between atoms: _306  and  _307
REMARK  126  A    between atoms: _306  and  _309
REMARK  127  A    between atoms: _309  and  _310
REMARK  128  A    between atoms: _313  and  _315
REMARK  129  A    between atoms: _315  and  _316
REMARK  130  A    between atoms: _315  and  _318
REMARK  131  A    between atoms: _318  and  _319
REMARK  132  A    between atoms: _319  and  _320
REMARK  133  A    between atoms: _322  and  _324
REMARK  134  A    between atoms: _324  and  _325
REMARK  135  A    between atoms: _324  and  _327
REMARK  136  A    between atoms: _327  and  _328
REMARK  137  A    between atoms: _331  and  _333
REMARK  138  A    between atoms: _333  and  _334
REMARK  139  A    between atoms: _333  and  _336
REMARK  140  A    between atoms: _338  and  _340
REMARK  141  A    between atoms: _340  and  _341
REMARK  142  A    between atoms: _340  and  _343
REMARK  143  A    between atoms: _343  and  _344
REMARK  144  A    between atoms: _344  and  _345
REMARK  145  A    between atoms: _345  and  _346
REMARK  146  A    between atoms: _355  and  _357
REMARK  147  A    between atoms: _357  and  _358
REMARK  148  A    between atoms: _360  and  _362
REMARK  149  A    between atoms: _362  and  _363
REMARK  150  A    between atoms: _362  and  _365
REMARK  151  A    between atoms: _365  and  _366
REMARK                            x       y       z     vdW  Elec       q    Type
REMARK                         _______ _______ _______ _____ _____    ______ ____
ROOT
ATOM      1  O   HOH     1      83.872  -4.687  36.671  0.00  0.00    +0.000 OA
ENDROOT
TORSDOF 0
REMARK  Name = ../refined-set-2016/2bo4/2bo4_pocket.pdb
REMARK  151 active torsions:
REMARK  status: ('A' for Active; 'I' for Inactive)
REMARK    1  A    between atoms: _1  and  _3
REMARK    2  A    between atoms: _3  and  _4
REMARK    3  A    between atoms: _3  and  _6
REMARK    4  A    between atoms: _6  and  _7
REMARK    5  A    between atoms: _7  and  _8
REMARK    6  A    between atoms: _8  and  _9
REMARK    7  A    between atoms: _9  and  _10
REMARK    8  A    between atoms: _14  and  _16
REMARK    9  A    between atoms: _16  and  _17
REMARK   10  A    between atoms: _16  and  _19
REMARK   11  A    between atoms: _19  and  _20
REMARK   12  A    between atoms: _23  and  _25
REMARK   13  A    between atoms: _25  and  _26
REMARK   14  A    between atoms: _25  and  _28
REMARK   15  A    between atoms: _28  and  _29
REMARK   16  A    between atoms: _32  and  _34
REMARK   17  A    between atoms: _34  and  _35
REMARK   18  A    between atoms: _34  and  _37
REMARK   19  A    between atoms: _37  and  _38
REMARK   20  A    between atoms: _38  and  _39
REMARK   21  A    between atoms: _39  and  _40
REMARK   22  A    between atoms: _49  and  _51
REMARK   23  A    between atoms: _51  and  _52
REMARK   24  A    between atoms: _55  and  _57
REMARK   25  A    between atoms: _57  and  _58
REMARK   26  A    between atoms: _57  and  _60
REMARK   27  A    between atoms: _60  and  _61
REMARK   28  A    between atoms: _64  and  _66
REMARK   29  A    between atoms: _66  and  _67
REMARK   30  A    between atoms: _66  and  _69
REMARK   31  A    between atoms: _69  and  _70
REMARK   32  A    between atoms: _73  and  _75
REMARK   33  A    between atoms: _75  and  _76
REMARK   34  A    between atoms: _79  and  _81
REMARK   35  A    between atoms: _81  and  _82
REMARK   36  A    between atoms: _81  and  _84
REMARK   37  A    between atoms: _84  and  _85
REMARK   38  A    between atoms: _85  and  _86
REMARK   39  A    between atoms: _88  and  _90
REMARK   40  A    between atoms: _90  and  _91
REMARK   41  A    between atoms: _90  and  _93
REMARK   42  A    between atoms: _93  and  _94
REMARK   43  A    between atoms: _97  and  _99
REMARK   44  A    between atoms: _99  and  _100
REMARK   45  A    between atoms: _99  and  _102
REMARK   46  A    between atoms: _102  and  _103
REMARK   47  A    between atoms: _106  and  _108
REMARK   48  A    between atoms: _108  and  _109
REMARK   49  A    between atoms: _108  and  _111
REMARK   50  A    between atoms: _111  and  _112
REMARK   51  A    between atoms: _122  and  _124
REMARK   52  A    between atoms: _124  and  _125
REMARK   53  A    between atoms: _124  and  _127
REMARK   54  A    between atoms: _127  and  _128
REMARK   55  A    between atoms: _128  and  _129
REMARK   56  A    between atoms: _131  and  _133
REMARK   57  A    between atoms: _133  and  _134
REMARK   58  A    between atoms: _133  and  _136
REMARK   59  A    between atoms: _136  and  _137
REMARK   60  A    between atoms: _140  and  _142
REMARK   61  A    between atoms: _142  and  _143
REMARK   62  A    between atoms: _142  and  _145
REMARK   63  A    between atoms: _145  and  _146
REMARK   64  A    between atoms: _149  and  _151
REMARK   65  A    between atoms: _151  and  _152
REMARK   66  A    between atoms: _151  and  _154
REMARK   67  A    between atoms: _154  and  _155
REMARK   68  A    between atoms: _155  and  _156
REMARK   69  A    between atoms: _156  and  _157
REMARK   70  A    between atoms: _166  and  _168
REMARK   71  A    between atoms: _168  and  _169
REMARK   72  A    between atoms: _168  and  _171
REMARK   73  A    between atoms: _171  and  _172
REMARK   74  A    between atoms: _172  and  _173
REMARK   75  A    between atoms: _176  and  _178
REMARK   76  A    between atoms: _178  and  _179
REMARK   77  A    between atoms: _178  and  _181
REMARK   78  A    between atoms: _181  and  _182
REMARK   79  A    between atoms: _182  and  _183
REMARK   80  A    between atoms: _189  and  _190
REMARK   81  A    between atoms: _195  and  _197
REMARK   82  A    between atoms: _197  and  _198
REMARK   83  A    between atoms: _197  and  _200
REMARK   84  A    between atoms: _200  and  _201
REMARK   85  A    between atoms: _204  and  _206
REMARK   86  A    between atoms: _206  and  _207
REMARK   87  A    between atoms: _209  and  _211
REMARK   88  A    between atoms: _211  and  _212
REMARK   89  A    between atoms: _214  and  _216
REMARK   90  A    between atoms: _216  and  _217
REMARK   91  A    between atoms: _216  and  _219
REMARK   92  A    between atoms: _219  and  _220
REMARK   93  A    between atoms: _230  and  _232
REMARK   94  A    between atoms: _232  and  _233
REMARK   95  A    between atoms: _232  and  _235
REMARK   96  A    between atoms: _235  and  _236
REMARK   97  A    between atoms: _236  and  _237
REMARK   98  A    between atoms: _237  and  _238
REMARK   99  A    between atoms: _238  and  _239
REMARK  100  A    between atoms: _243  and  _245
REMARK  101  A    between atoms: _245  and  _246
REMARK  102  A    between atoms: _249  and  _251
REMARK  103  A    between atoms: _251  and  _252
REMARK  104  A    between atoms: _251  and  _254
REMARK  105  A    between atoms: _254  and  _255
REMARK  106  A    between atoms: _260  and  _262
REMARK  107  A    between atoms: _262  and  _263
REMARK  108  A    between atoms: _262  and  _265
REMARK  109  A    between atoms: _265  and  _266
REMARK  110  A    between atoms: _266  and  _267
REMARK  111  A    between atoms: _267  and  _268
REMARK  112  A    between atoms: _277  and  _279
REMARK  113  A    between atoms: _279  and  _280
REMARK  114  A    between atoms: _279  and  _282
REMARK  115  A    between atoms: _282  and  _283
REMARK  116  A    between atoms: _286  and  _288
REMARK  117  A    between atoms: _288  and  _289
REMARK  118  A    between atoms: _288  and  _291
REMARK  119  A    between atoms: _291  and  _292
REMARK  120  A    between atoms: _295  and  _297
REMARK  121  A    between atoms: _297  and  _298
REMARK  122  A    between atoms: _297  and  _300
REMARK  123  A    between atoms: _300  and  _301
REMARK  124  A    between atoms: _304  and  _306
REMARK  125  A    between atoms: _306  and  _307
REMARK  126  A    between atoms: _306  and  _309
REMARK  127  A    between atoms: _309  and  _310
REMARK  128  A    between atoms: _313  and  _315
REMARK  129  A    between atoms: _315  and  _316
REMARK  130  A    between atoms: _315  and  _318
REMARK  131  A    between atoms: _318  and  _319
REMARK  132  A    between atoms: _319  and  _320
REMARK  133  A    between atoms: _322  and  _324
REMARK  134  A    between atoms: _324  and  _325
REMARK  135  A    between atoms: _324  and  _327
REMARK  136  A    between atoms: _327  and  _328
REMARK  137  A    between atoms: _331  and  _333
REMARK  138  A    between atoms: _333  and  _334
REMARK  139  A    between atoms: _333  and  _336
REMARK  140  A    between atoms: _338  and  _340
REMARK  141  A    between atoms: _340  and  _341
REMARK  142  A    between atoms: _340  and  _343
REMARK  143  A    between atoms: _343  and  _344
REMARK  144  A    between atoms: _344  and  _345
REMARK  145  A    between atoms: _345  and  _346
REMARK  146  A    between atoms: _355  and  _357
REMARK  147  A    between atoms: _357  and  _358
REMARK  148  A    between atoms: _360  and  _362
REMARK  149  A    between atoms: _362  and  _363
REMARK  150  A    between atoms: _362  and  _365
REMARK  151  A    between atoms: _365  and  _366
REMARK                            x       y       z     vdW  Elec       q    Type
REMARK                         _______ _______ _______ _____ _____    ______ ____
ROOT
ATOM      1  O   HOH     1      83.135   0.503  46.934  0.00  0.00    +0.000 OA
ENDROOT
TORSDOF 0
REMARK  Name = ../refined-set-2016/2bo4/2bo4_pocket.pdb
REMARK  151 active torsions:
REMARK  status: ('A' for Active; 'I' for Inactive)
REMARK    1  A    between atoms: _1  and  _3
REMARK    2  A    between atoms: _3  and  _4
REMARK    3  A    between atoms: _3  and  _6
REMARK    4  A    between atoms: _6  and  _7
REMARK    5  A    between atoms: _7  and  _8
REMARK    6  A    between atoms: _8  and  _9
REMARK    7  A    between atoms: _9  and  _10
REMARK    8  A    between atoms: _14  and  _16
REMARK    9  A    between atoms: _16  and  _17
REMARK   10  A    between atoms: _16  and  _19
REMARK   11  A    between atoms: _19  and  _20
REMARK   12  A    between atoms: _23  and  _25
REMARK   13  A    between atoms: _25  and  _26
REMARK   14  A    between atoms: _25  and  _28
REMARK   15  A    between atoms: _28  and  _29
REMARK   16  A    between atoms: _32  and  _34
REMARK   17  A    between atoms: _34  and  _35
REMARK   18  A    between atoms: _34  and  _37
REMARK   19  A    between atoms: _37  and  _38
REMARK   20  A    between atoms: _38  and  _39
REMARK   21  A    between atoms: _39  and  _40
REMARK   22  A    between atoms: _49  and  _51
REMARK   23  A    between atoms: _51  and  _52
REMARK   24  A    between atoms: _55  and  _57
REMARK   25  A    between atoms: _57  and  _58
REMARK   26  A    between atoms: _57  and  _60
REMARK   27  A    between atoms: _60  and  _61
REMARK   28  A    between atoms: _64  and  _66
REMARK   29  A    between atoms: _66  and  _67
REMARK   30  A    between atoms: _66  and  _69
REMARK   31  A    between atoms: _69  and  _70
REMARK   32  A    between atoms: _73  and  _75
REMARK   33  A    between atoms: _75  and  _76
REMARK   34  A    between atoms: _79  and  _81
REMARK   35  A    between atoms: _81  and  _82
REMARK   36  A    between atoms: _81  and  _84
REMARK   37  A    between atoms: _84  and  _85
REMARK   38  A    between atoms: _85  and  _86
REMARK   39  A    between atoms: _88  and  _90
REMARK   40  A    between atoms: _90  and  _91
REMARK   41  A    between atoms: _90  and  _93
REMARK   42  A    between atoms: _93  and  _94
REMARK   43  A    between atoms: _97  and  _99
REMARK   44  A    between atoms: _99  and  _100
REMARK   45  A    between atoms: _99  and  _102
REMARK   46  A    between atoms: _102  and  _103
REMARK   47  A    between atoms: _106  and  _108
REMARK   48  A    between atoms: _108  and  _109
REMARK   49  A    between atoms: _108  and  _111
REMARK   50  A    between atoms: _111  and  _112
REMARK   51  A    between atoms: _122  and  _124
REMARK   52  A    between atoms: _124  and  _125
REMARK   53  A    between atoms: _124  and  _127
REMARK   54  A    between atoms: _127  and  _128
REMARK   55  A    between atoms: _128  and  _129
REMARK   56  A    between atoms: _131  and  _133
REMARK   57  A    between atoms: _133  and  _134
REMARK   58  A    between atoms: _133  and  _136
REMARK   59  A    between atoms: _136  and  _137
REMARK   60  A    between atoms: _140  and  _142
REMARK   61  A    between atoms: _142  and  _143
REMARK   62  A    between atoms: _142  and  _145
REMARK   63  A    between atoms: _145  and  _146
REMARK   64  A    between atoms: _149  and  _151
REMARK   65  A    between atoms: _151  and  _152
REMARK   66  A    between atoms: _151  and  _154
REMARK   67  A    between atoms: _154  and  _155
REMARK   68  A    between atoms: _155  and  _156
REMARK   69  A    between atoms: _156  and  _157
REMARK   70  A    between atoms: _166  and  _168
REMARK   71  A    between atoms: _168  and  _169
REMARK   72  A    between atoms: _168  and  _171
REMARK   73  A    between atoms: _171  and  _172
REMARK   74  A    between atoms: _172  and  _173
REMARK   75  A    between atoms: _176  and  _178
REMARK   76  A    between atoms: _178  and  _179
REMARK   77  A    between atoms: _178  and  _181
REMARK   78  A    between atoms: _181  and  _182
REMARK   79  A    between atoms: _182  and  _183
REMARK   80  A    between atoms: _189  and  _190
REMARK   81  A    between atoms: _195  and  _197
REMARK   82  A    between atoms: _197  and  _198
REMARK   83  A    between atoms: _197  and  _200
REMARK   84  A    between atoms: _200  and  _201
REMARK   85  A    between atoms: _204  and  _206
REMARK   86  A    between atoms: _206  and  _207
REMARK   87  A    between atoms: _209  and  _211
REMARK   88  A    between atoms: _211  and  _212
REMARK   89  A    between atoms: _214  and  _216
REMARK   90  A    between atoms: _216  and  _217
REMARK   91  A    between atoms: _216  and  _219
REMARK   92  A    between atoms: _219  and  _220
REMARK   93  A    between atoms: _230  and  _232
REMARK   94  A    between atoms: _232  and  _233
REMARK   95  A    between atoms: _232  and  _235
REMARK   96  A    between atoms: _235  and  _236
REMARK   97  A    between atoms: _236  and  _237
REMARK   98  A    between atoms: _237  and  _238
REMARK   99  A    between atoms: _238  and  _239
REMARK  100  A    between atoms: _243  and  _245
REMARK  101  A    between atoms: _245  and  _246
REMARK  102  A    between atoms: _249  and  _251
REMARK  103  A    between atoms: _251  and  _252
REMARK  104  A    between atoms: _251  and  _254
REMARK  105  A    between atoms: _254  and  _255
REMARK  106  A    between atoms: _260  and  _262
REMARK  107  A    between atoms: _262  and  _263
REMARK  108  A    between atoms: _262  and  _265
REMARK  109  A    between atoms: _265  and  _266
REMARK  110  A    between atoms: _266  and  _267
REMARK  111  A    between atoms: _267  and  _268
REMARK  112  A    between atoms: _277  and  _279
REMARK  113  A    between atoms: _279  and  _280
REMARK  114  A    between atoms: _279  and  _282
REMARK  115  A    between atoms: _282  and  _283
REMARK  116  A    between atoms: _286  and  _288
REMARK  117  A    between atoms: _288  and  _289
REMARK  118  A    between atoms: _288  and  _291
REMARK  119  A    between atoms: _291  and  _292
REMARK  120  A    between atoms: _295  and  _297
REMARK  121  A    between atoms: _297  and  _298
REMARK  122  A    between atoms: _297  and  _300
REMARK  123  A    between atoms: _300  and  _301
REMARK  124  A    between atoms: _304  and  _306
REMARK  125  A    between atoms: _306  and  _307
REMARK  126  A    between atoms: _306  and  _309
REMARK  127  A    between atoms: _309  and  _310
REMARK  128  A    between atoms: _313  and  _315
REMARK  129  A    between atoms: _315  and  _316
REMARK  130  A    between atoms: _315  and  _318
REMARK  131  A    between atoms: _318  and  _319
REMARK  132  A    between atoms: _319  and  _320
REMARK  133  A    between atoms: _322  and  _324
REMARK  134  A    between atoms: _324  and  _325
REMARK  135  A    between atoms: _324  and  _327
REMARK  136  A    between atoms: _327  and  _328
REMARK  137  A    between atoms: _331  and  _333
REMARK  138  A    between atoms: _333  and  _334
REMARK  139  A    between atoms: _333  and  _336
REMARK  140  A    between atoms: _338  and  _340
REMARK  141  A    between atoms: _340  and  _341
REMARK  142  A    between atoms: _340  and  _343
REMARK  143  A    between atoms: _343  and  _344
REMARK  144  A    between atoms: _344  and  _345
REMARK  145  A    between atoms: _345  and  _346
REMARK  146  A    between atoms: _355  and  _357
REMARK  147  A    between atoms: _357  and  _358
REMARK  148  A    between atoms: _360  and  _362
REMARK  149  A    between atoms: _362  and  _363
REMARK  150  A    between atoms: _362  and  _365
REMARK  151  A    between atoms: _365  and  _366
REMARK                            x       y       z     vdW  Elec       q    Type
REMARK                         _______ _______ _______ _____ _____    ______ ____
ROOT
ATOM      1  O   HOH     1      84.540  -2.016  45.923  0.00  0.00    +0.000 OA
ENDROOT
TORSDOF 0
REMARK  Name = ../refined-set-2016/2bo4/2bo4_pocket.pdb
REMARK  151 active torsions:
REMARK  status: ('A' for Active; 'I' for Inactive)
REMARK    1  A    between atoms: _1  and  _3
REMARK    2  A    between atoms: _3  and  _4
REMARK    3  A    between atoms: _3  and  _6
REMARK    4  A    between atoms: _6  and  _7
REMARK    5  A    between atoms: _7  and  _8
REMARK    6  A    between atoms: _8  and  _9
REMARK    7  A    between atoms: _9  and  _10
REMARK    8  A    between atoms: _14  and  _16
REMARK    9  A    between atoms: _16  and  _17
REMARK   10  A    between atoms: _16  and  _19
REMARK   11  A    between atoms: _19  and  _20
REMARK   12  A    between atoms: _23  and  _25
REMARK   13  A    between atoms: _25  and  _26
REMARK   14  A    between atoms: _25  and  _28
REMARK   15  A    between atoms: _28  and  _29
REMARK   16  A    between atoms: _32  and  _34
REMARK   17  A    between atoms: _34  and  _35
REMARK   18  A    between atoms: _34  and  _37
REMARK   19  A    between atoms: _37  and  _38
REMARK   20  A    between atoms: _38  and  _39
REMARK   21  A    between atoms: _39  and  _40
REMARK   22  A    between atoms: _49  and  _51
REMARK   23  A    between atoms: _51  and  _52
REMARK   24  A    between atoms: _55  and  _57
REMARK   25  A    between atoms: _57  and  _58
REMARK   26  A    between atoms: _57  and  _60
REMARK   27  A    between atoms: _60  and  _61
REMARK   28  A    between atoms: _64  and  _66
REMARK   29  A    between atoms: _66  and  _67
REMARK   30  A    between atoms: _66  and  _69
REMARK   31  A    between atoms: _69  and  _70
REMARK   32  A    between atoms: _73  and  _75
REMARK   33  A    between atoms: _75  and  _76
REMARK   34  A    between atoms: _79  and  _81
REMARK   35  A    between atoms: _81  and  _82
REMARK   36  A    between atoms: _81  and  _84
REMARK   37  A    between atoms: _84  and  _85
REMARK   38  A    between atoms: _85  and  _86
REMARK   39  A    between atoms: _88  and  _90
REMARK   40  A    between atoms: _90  and  _91
REMARK   41  A    between atoms: _90  and  _93
REMARK   42  A    between atoms: _93  and  _94
REMARK   43  A    between atoms: _97  and  _99
REMARK   44  A    between atoms: _99  and  _100
REMARK   45  A    between atoms: _99  and  _102
REMARK   46  A    between atoms: _102  and  _103
REMARK   47  A    between atoms: _106  and  _108
REMARK   48  A    between atoms: _108  and  _109
REMARK   49  A    between atoms: _108  and  _111
REMARK   50  A    between atoms: _111  and  _112
REMARK   51  A    between atoms: _122  and  _124
REMARK   52  A    between atoms: _124  and  _125
REMARK   53  A    between atoms: _124  and  _127
REMARK   54  A    between atoms: _127  and  _128
REMARK   55  A    between atoms: _128  and  _129
REMARK   56  A    between atoms: _131  and  _133
REMARK   57  A    between atoms: _133  and  _134
REMARK   58  A    between atoms: _133  and  _136
REMARK   59  A    between atoms: _136  and  _137
REMARK   60  A    between atoms: _140  and  _142
REMARK   61  A    between atoms: _142  and  _143
REMARK   62  A    between atoms: _142  and  _145
REMARK   63  A    between atoms: _145  and  _146
REMARK   64  A    between atoms: _149  and  _151
REMARK   65  A    between atoms: _151  and  _152
REMARK   66  A    between atoms: _151  and  _154
REMARK   67  A    between atoms: _154  and  _155
REMARK   68  A    between atoms: _155  and  _156
REMARK   69  A    between atoms: _156  and  _157
REMARK   70  A    between atoms: _166  and  _168
REMARK   71  A    between atoms: _168  and  _169
REMARK   72  A    between atoms: _168  and  _171
REMARK   73  A    between atoms: _171  and  _172
REMARK   74  A    between atoms: _172  and  _173
REMARK   75  A    between atoms: _176  and  _178
REMARK   76  A    between atoms: _178  and  _179
REMARK   77  A    between atoms: _178  and  _181
REMARK   78  A    between atoms: _181  and  _182
REMARK   79  A    between atoms: _182  and  _183
REMARK   80  A    between atoms: _189  and  _190
REMARK   81  A    between atoms: _195  and  _197
REMARK   82  A    between atoms: _197  and  _198
REMARK   83  A    between atoms: _197  and  _200
REMARK   84  A    between atoms: _200  and  _201
REMARK   85  A    between atoms: _204  and  _206
REMARK   86  A    between atoms: _206  and  _207
REMARK   87  A    between atoms: _209  and  _211
REMARK   88  A    between atoms: _211  and  _212
REMARK   89  A    between atoms: _214  and  _216
REMARK   90  A    between atoms: _216  and  _217
REMARK   91  A    between atoms: _216  and  _219
REMARK   92  A    between atoms: _219  and  _220
REMARK   93  A    between atoms: _230  and  _232
REMARK   94  A    between atoms: _232  and  _233
REMARK   95  A    between atoms: _232  and  _235
REMARK   96  A    between atoms: _235  and  _236
REMARK   97  A    between atoms: _236  and  _237
REMARK   98  A    between atoms: _237  and  _238
REMARK   99  A    between atoms: _238  and  _239
REMARK  100  A    between atoms: _243  and  _245
REMARK  101  A    between atoms: _245  and  _246
REMARK  102  A    between atoms: _249  and  _251
REMARK  103  A    between atoms: _251  and  _252
REMARK  104  A    between atoms: _251  and  _254
REMARK  105  A    between atoms: _254  and  _255
REMARK  106  A    between atoms: _260  and  _262
REMARK  107  A    between atoms: _262  and  _263
REMARK  108  A    between atoms: _262  and  _265
REMARK  109  A    between atoms: _265  and  _266
REMARK  110  A    between atoms: _266  and  _267
REMARK  111  A    between atoms: _267  and  _268
REMARK  112  A    between atoms: _277  and  _279
REMARK  113  A    between atoms: _279  and  _280
REMARK  114  A    between atoms: _279  and  _282
REMARK  115  A    between atoms: _282  and  _283
REMARK  116  A    between atoms: _286  and  _288
REMARK  117  A    between atoms: _288  and  _289
REMARK  118  A    between atoms: _288  and  _291
REMARK  119  A    between atoms: _291  and  _292
REMARK  120  A    between atoms: _295  and  _297
REMARK  121  A    between atoms: _297  and  _298
REMARK  122  A    between atoms: _297  and  _300
REMARK  123  A    between atoms: _300  and  _301
REMARK  124  A    between atoms: _304  and  _306
REMARK  125  A    between atoms: _306  and  _307
REMARK  126  A    between atoms: _306  and  _309
REMARK  127  A    between atoms: _309  and  _310
REMARK  128  A    between atoms: _313  and  _315
REMARK  129  A    between atoms: _315  and  _316
REMARK  130  A    between atoms: _315  and  _318
REMARK  131  A    between atoms: _318  and  _319
REMARK  132  A    between atoms: _319  and  _320
REMARK  133  A    between atoms: _322  and  _324
REMARK  134  A    between atoms: _324  and  _325
REMARK  135  A    between atoms: _324  and  _327
REMARK  136  A    between atoms: _327  and  _328
REMARK  137  A    between atoms: _331  and  _333
REMARK  138  A    between atoms: _333  and  _334
REMARK  139  A    between atoms: _333  and  _336
REMARK  140  A    between atoms: _338  and  _340
REMARK  141  A    between atoms: _340  and  _341
REMARK  142  A    between atoms: _340  and  _343
REMARK  143  A    between atoms: _343  and  _344
REMARK  144  A    between atoms: _344  and  _345
REMARK  145  A    between atoms: _345  and  _346
REMARK  146  A    between atoms: _355  and  _357
REMARK  147  A    between atoms: _357  and  _358
REMARK  148  A    between atoms: _360  and  _362
REMARK  149  A    between atoms: _362  and  _363
REMARK  150  A    between atoms: _362  and  _365
REMARK  151  A    between atoms: _365  and  _366
REMARK                            x       y       z     vdW  Elec       q    Type
REMARK                         _______ _______ _______ _____ _____    ______ ____
ROOT
ATOM      1  O   HOH     1      81.622  -7.782  45.066  0.00  0.00    +0.000 OA
ENDROOT
TORSDOF 0
REMARK  Name = ../refined-set-2016/2bo4/2bo4_pocket.pdb
REMARK  151 active torsions:
REMARK  status: ('A' for Active; 'I' for Inactive)
REMARK    1  A    between atoms: _1  and  _3
REMARK    2  A    between atoms: _3  and  _4
REMARK    3  A    between atoms: _3  and  _6
REMARK    4  A    between atoms: _6  and  _7
REMARK    5  A    between atoms: _7  and  _8
REMARK    6  A    between atoms: _8  and  _9
REMARK    7  A    between atoms: _9  and  _10
REMARK    8  A    between atoms: _14  and  _16
REMARK    9  A    between atoms: _16  and  _17
REMARK   10  A    between atoms: _16  and  _19
REMARK   11  A    between atoms: _19  and  _20
REMARK   12  A    between atoms: _23  and  _25
REMARK   13  A    between atoms: _25  and  _26
REMARK   14  A    between atoms: _25  and  _28
REMARK   15  A    between atoms: _28  and  _29
REMARK   16  A    between atoms: _32  and  _34
REMARK   17  A    between atoms: _34  and  _35
REMARK   18  A    between atoms: _34  and  _37
REMARK   19  A    between atoms: _37  and  _38
REMARK   20  A    between atoms: _38  and  _39
REMARK   21  A    between atoms: _39  and  _40
REMARK   22  A    between atoms: _49  and  _51
REMARK   23  A    between atoms: _51  and  _52
REMARK   24  A    between atoms: _55  and  _57
REMARK   25  A    between atoms: _57  and  _58
REMARK   26  A    between atoms: _57  and  _60
REMARK   27  A    between atoms: _60  and  _61
REMARK   28  A    between atoms: _64  and  _66
REMARK   29  A    between atoms: _66  and  _67
REMARK   30  A    between atoms: _66  and  _69
REMARK   31  A    between atoms: _69  and  _70
REMARK   32  A    between atoms: _73  and  _75
REMARK   33  A    between atoms: _75  and  _76
REMARK   34  A    between atoms: _79  and  _81
REMARK   35  A    between atoms: _81  and  _82
REMARK   36  A    between atoms: _81  and  _84
REMARK   37  A    between atoms: _84  and  _85
REMARK   38  A    between atoms: _85  and  _86
REMARK   39  A    between atoms: _88  and  _90
REMARK   40  A    between atoms: _90  and  _91
REMARK   41  A    between atoms: _90  and  _93
REMARK   42  A    between atoms: _93  and  _94
REMARK   43  A    between atoms: _97  and  _99
REMARK   44  A    between atoms: _99  and  _100
REMARK   45  A    between atoms: _99  and  _102
REMARK   46  A    between atoms: _102  and  _103
REMARK   47  A    between atoms: _106  and  _108
REMARK   48  A    between atoms: _108  and  _109
REMARK   49  A    between atoms: _108  and  _111
REMARK   50  A    between atoms: _111  and  _112
REMARK   51  A    between atoms: _122  and  _124
REMARK   52  A    between atoms: _124  and  _125
REMARK   53  A    between atoms: _124  and  _127
REMARK   54  A    between atoms: _127  and  _128
REMARK   55  A    between atoms: _128  and  _129
REMARK   56  A    between atoms: _131  and  _133
REMARK   57  A    between atoms: _133  and  _134
REMARK   58  A    between atoms: _133  and  _136
REMARK   59  A    between atoms: _136  and  _137
REMARK   60  A    between atoms: _140  and  _142
REMARK   61  A    between atoms: _142  and  _143
REMARK   62  A    between atoms: _142  and  _145
REMARK   63  A    between atoms: _145  and  _146
REMARK   64  A    between atoms: _149  and  _151
REMARK   65  A    between atoms: _151  and  _152
REMARK   66  A    between atoms: _151  and  _154
REMARK   67  A    between atoms: _154  and  _155
REMARK   68  A    between atoms: _155  and  _156
REMARK   69  A    between atoms: _156  and  _157
REMARK   70  A    between atoms: _166  and  _168
REMARK   71  A    between atoms: _168  and  _169
REMARK   72  A    between atoms: _168  and  _171
REMARK   73  A    between atoms: _171  and  _172
REMARK   74  A    between atoms: _172  and  _173
REMARK   75  A    between atoms: _176  and  _178
REMARK   76  A    between atoms: _178  and  _179
REMARK   77  A    between atoms: _178  and  _181
REMARK   78  A    between atoms: _181  and  _182
REMARK   79  A    between atoms: _182  and  _183
REMARK   80  A    between atoms: _189  and  _190
REMARK   81  A    between atoms: _195  and  _197
REMARK   82  A    between atoms: _197  and  _198
REMARK   83  A    between atoms: _197  and  _200
REMARK   84  A    between atoms: _200  and  _201
REMARK   85  A    between atoms: _204  and  _206
REMARK   86  A    between atoms: _206  and  _207
REMARK   87  A    between atoms: _209  and  _211
REMARK   88  A    between atoms: _211  and  _212
REMARK   89  A    between atoms: _214  and  _216
REMARK   90  A    between atoms: _216  and  _217
REMARK   91  A    between atoms: _216  and  _219
REMARK   92  A    between atoms: _219  and  _220
REMARK   93  A    between atoms: _230  and  _232
REMARK   94  A    between atoms: _232  and  _233
REMARK   95  A    between atoms: _232  and  _235
REMARK   96  A    between atoms: _235  and  _236
REMARK   97  A    between atoms: _236  and  _237
REMARK   98  A    between atoms: _237  and  _238
REMARK   99  A    between atoms: _238  and  _239
REMARK  100  A    between atoms: _243  and  _245
REMARK  101  A    between atoms: _245  and  _246
REMARK  102  A    between atoms: _249  and  _251
REMARK  103  A    between atoms: _251  and  _252
REMARK  104  A    between atoms: _251  and  _254
REMARK  105  A    between atoms: _254  and  _255
REMARK  106  A    between atoms: _260  and  _262
REMARK  107  A    between atoms: _262  and  _263
REMARK  108  A    between atoms: _262  and  _265
REMARK  109  A    between atoms: _265  and  _266
REMARK  110  A    between atoms: _266  and  _267
REMARK  111  A    between atoms: _267  and  _268
REMARK  112  A    between atoms: _277  and  _279
REMARK  113  A    between atoms: _279  and  _280
REMARK  114  A    between atoms: _279  and  _282
REMARK  115  A    between atoms: _282  and  _283
REMARK  116  A    between atoms: _286  and  _288
REMARK  117  A    between atoms: _288  and  _289
REMARK  118  A    between atoms: _288  and  _291
REMARK  119  A    between atoms: _291  and  _292
REMARK  120  A    between atoms: _295  and  _297
REMARK  121  A    between atoms: _297  and  _298
REMARK  122  A    between atoms: _297  and  _300
REMARK  123  A    between atoms: _300  and  _301
REMARK  124  A    between atoms: _304  and  _306
REMARK  125  A    between atoms: _306  and  _307
REMARK  126  A    between atoms: _306  and  _309
REMARK  127  A    between atoms: _309  and  _310
REMARK  128  A    between atoms: _313  and  _315
REMARK  129  A    between atoms: _315  and  _316
REMARK  130  A    between atoms: _315  and  _318
REMARK  131  A    between atoms: _318  and  _319
REMARK  132  A    between atoms: _319  and  _320
REMARK  133  A    between atoms: _322  and  _324
REMARK  134  A    between atoms: _324  and  _325
REMARK  135  A    between atoms: _324  and  _327
REMARK  136  A    between atoms: _327  and  _328
REMARK  137  A    between atoms: _331  and  _333
REMARK  138  A    between atoms: _333  and  _334
REMARK  139  A    between atoms: _333  and  _336
REMARK  140  A    between atoms: _338  and  _340
REMARK  141  A    between atoms: _340  and  _341
REMARK  142  A    between atoms: _340  and  _343
REMARK  143  A    between atoms: _343  and  _344
REMARK  144  A    between atoms: _344  and  _345
REMARK  145  A    between atoms: _345  and  _346
REMARK  146  A    between atoms: _355  and  _357
REMARK  147  A    between atoms: _357  and  _358
REMARK  148  A    between atoms: _360  and  _362
REMARK  149  A    between atoms: _362  and  _363
REMARK  150  A    between atoms: _362  and  _365
REMARK  151  A    between atoms: _365  and  _366
REMARK                            x       y       z     vdW  Elec       q    Type
REMARK                         _______ _______ _______ _____ _____    ______ ____
ROOT
ATOM      1  O   HOH     1      76.675  -2.443  43.256  0.00  0.00    +0.000 OA
ENDROOT
TORSDOF 0
REMARK  Name = ../refined-set-2016/2bo4/2bo4_pocket.pdb
REMARK  151 active torsions:
REMARK  status: ('A' for Active; 'I' for Inactive)
REMARK    1  A    between atoms: _1  and  _3
REMARK    2  A    between atoms: _3  and  _4
REMARK    3  A    between atoms: _3  and  _6
REMARK    4  A    between atoms: _6  and  _7
REMARK    5  A    between atoms: _7  and  _8
REMARK    6  A    between atoms: _8  and  _9
REMARK    7  A    between atoms: _9  and  _10
REMARK    8  A    between atoms: _14  and  _16
REMARK    9  A    between atoms: _16  and  _17
REMARK   10  A    between atoms: _16  and  _19
REMARK   11  A    between atoms: _19  and  _20
REMARK   12  A    between atoms: _23  and  _25
REMARK   13  A    between atoms: _25  and  _26
REMARK   14  A    between atoms: _25  and  _28
REMARK   15  A    between atoms: _28  and  _29
REMARK   16  A    between atoms: _32  and  _34
REMARK   17  A    between atoms: _34  and  _35
REMARK   18  A    between atoms: _34  and  _37
REMARK   19  A    between atoms: _37  and  _38
REMARK   20  A    between atoms: _38  and  _39
REMARK   21  A    between atoms: _39  and  _40
REMARK   22  A    between atoms: _49  and  _51
REMARK   23  A    between atoms: _51  and  _52
REMARK   24  A    between atoms: _55  and  _57
REMARK   25  A    between atoms: _57  and  _58
REMARK   26  A    between atoms: _57  and  _60
REMARK   27  A    between atoms: _60  and  _61
REMARK   28  A    between atoms: _64  and  _66
REMARK   29  A    between atoms: _66  and  _67
REMARK   30  A    between atoms: _66  and  _69
REMARK   31  A    between atoms: _69  and  _70
REMARK   32  A    between atoms: _73  and  _75
REMARK   33  A    between atoms: _75  and  _76
REMARK   34  A    between atoms: _79  and  _81
REMARK   35  A    between atoms: _81  and  _82
REMARK   36  A    between atoms: _81  and  _84
REMARK   37  A    between atoms: _84  and  _85
REMARK   38  A    between atoms: _85  and  _86
REMARK   39  A    between atoms: _88  and  _90
REMARK   40  A    between atoms: _90  and  _91
REMARK   41  A    between atoms: _90  and  _93
REMARK   42  A    between atoms: _93  and  _94
REMARK   43  A    between atoms: _97  and  _99
REMARK   44  A    between atoms: _99  and  _100
REMARK   45  A    between atoms: _99  and  _102
REMARK   46  A    between atoms: _102  and  _103
REMARK   47  A    between atoms: _106  and  _108
REMARK   48  A    between atoms: _108  and  _109
REMARK   49  A    between atoms: _108  and  _111
REMARK   50  A    between atoms: _111  and  _112
REMARK   51  A    between atoms: _122  and  _124
REMARK   52  A    between atoms: _124  and  _125
REMARK   53  A    between atoms: _124  and  _127
REMARK   54  A    between atoms: _127  and  _128
REMARK   55  A    between atoms: _128  and  _129
REMARK   56  A    between atoms: _131  and  _133
REMARK   57  A    between atoms: _133  and  _134
REMARK   58  A    between atoms: _133  and  _136
REMARK   59  A    between atoms: _136  and  _137
REMARK   60  A    between atoms: _140  and  _142
REMARK   61  A    between atoms: _142  and  _143
REMARK   62  A    between atoms: _142  and  _145
REMARK   63  A    between atoms: _145  and  _146
REMARK   64  A    between atoms: _149  and  _151
REMARK   65  A    between atoms: _151  and  _152
REMARK   66  A    between atoms: _151  and  _154
REMARK   67  A    between atoms: _154  and  _155
REMARK   68  A    between atoms: _155  and  _156
REMARK   69  A    between atoms: _156  and  _157
REMARK   70  A    between atoms: _166  and  _168
REMARK   71  A    between atoms: _168  and  _169
REMARK   72  A    between atoms: _168  and  _171
REMARK   73  A    between atoms: _171  and  _172
REMARK   74  A    between atoms: _172  and  _173
REMARK   75  A    between atoms: _176  and  _178
REMARK   76  A    between atoms: _178  and  _179
REMARK   77  A    between atoms: _178  and  _181
REMARK   78  A    between atoms: _181  and  _182
REMARK   79  A    between atoms: _182  and  _183
REMARK   80  A    between atoms: _189  and  _190
REMARK   81  A    between atoms: _195  and  _197
REMARK   82  A    between atoms: _197  and  _198
REMARK   83  A    between atoms: _197  and  _200
REMARK   84  A    between atoms: _200  and  _201
REMARK   85  A    between atoms: _204  and  _206
REMARK   86  A    between atoms: _206  and  _207
REMARK   87  A    between atoms: _209  and  _211
REMARK   88  A    between atoms: _211  and  _212
REMARK   89  A    between atoms: _214  and  _216
REMARK   90  A    between atoms: _216  and  _217
REMARK   91  A    between atoms: _216  and  _219
REMARK   92  A    between atoms: _219  and  _220
REMARK   93  A    between atoms: _230  and  _232
REMARK   94  A    between atoms: _232  and  _233
REMARK   95  A    between atoms: _232  and  _235
REMARK   96  A    between atoms: _235  and  _236
REMARK   97  A    between atoms: _236  and  _237
REMARK   98  A    between atoms: _237  and  _238
REMARK   99  A    between atoms: _238  and  _239
REMARK  100  A    between atoms: _243  and  _245
REMARK  101  A    between atoms: _245  and  _246
REMARK  102  A    between atoms: _249  and  _251
REMARK  103  A    between atoms: _251  and  _252
REMARK  104  A    between atoms: _251  and  _254
REMARK  105  A    between atoms: _254  and  _255
REMARK  106  A    between atoms: _260  and  _262
REMARK  107  A    between atoms: _262  and  _263
REMARK  108  A    between atoms: _262  and  _265
REMARK  109  A    between atoms: _265  and  _266
REMARK  110  A    between atoms: _266  and  _267
REMARK  111  A    between atoms: _267  and  _268
REMARK  112  A    between atoms: _277  and  _279
REMARK  113  A    between atoms: _279  and  _280
REMARK  114  A    between atoms: _279  and  _282
REMARK  115  A    between atoms: _282  and  _283
REMARK  116  A    between atoms: _286  and  _288
REMARK  117  A    between atoms: _288  and  _289
REMARK  118  A    between atoms: _288  and  _291
REMARK  119  A    between atoms: _291  and  _292
REMARK  120  A    between atoms: _295  and  _297
REMARK  121  A    between atoms: _297  and  _298
REMARK  122  A    between atoms: _297  and  _300
REMARK  123  A    between atoms: _300  and  _301
REMARK  124  A    between atoms: _304  and  _306
REMARK  125  A    between atoms: _306  and  _307
REMARK  126  A    between atoms: _306  and  _309
REMARK  127  A    between atoms: _309  and  _310
REMARK  128  A    between atoms: _313  and  _315
REMARK  129  A    between atoms: _315  and  _316
REMARK  130  A    between atoms: _315  and  _318
REMARK  131  A    between atoms: _318  and  _319
REMARK  132  A    between atoms: _319  and  _320
REMARK  133  A    between atoms: _322  and  _324
REMARK  134  A    between atoms: _324  and  _325
REMARK  135  A    between atoms: _324  and  _327
REMARK  136  A    between atoms: _327  and  _328
REMARK  137  A    between atoms: _331  and  _333
REMARK  138  A    between atoms: _333  and  _334
REMARK  139  A    between atoms: _333  and  _336
REMARK  140  A    between atoms: _338  and  _340
REMARK  141  A    between atoms: _340  and  _341
REMARK  142  A    between atoms: _340  and  _343
REMARK  143  A    between atoms: _343  and  _344
REMARK  144  A    between atoms: _344  and  _345
REMARK  145  A    between atoms: _345  and  _346
REMARK  146  A    between atoms: _355  and  _357
REMARK  147  A    between atoms: _357  and  _358
REMARK  148  A    between atoms: _360  and  _362
REMARK  149  A    between atoms: _362  and  _363
REMARK  150  A    between atoms: _362  and  _365
REMARK  151  A    between atoms: _365  and  _366
REMARK                            x       y       z     vdW  Elec       q    Type
REMARK                         _______ _______ _______ _____ _____    ______ ____
ROOT
ATOM      1  O   HOH     1      83.204   0.709  44.309  0.00  0.00    +0.000 OA
ENDROOT
TORSDOF 0
REMARK  Name = ../refined-set-2016/2bo4/2bo4_pocket.pdb
REMARK  151 active torsions:
REMARK  status: ('A' for Active; 'I' for Inactive)
REMARK    1  A    between atoms: _1  and  _3
REMARK    2  A    between atoms: _3  and  _4
REMARK    3  A    between atoms: _3  and  _6
REMARK    4  A    between atoms: _6  and  _7
REMARK    5  A    between atoms: _7  and  _8
REMARK    6  A    between atoms: _8  and  _9
REMARK    7  A    between atoms: _9  and  _10
REMARK    8  A    between atoms: _14  and  _16
REMARK    9  A    between atoms: _16  and  _17
REMARK   10  A    between atoms: _16  and  _19
REMARK   11  A    between atoms: _19  and  _20
REMARK   12  A    between atoms: _23  and  _25
REMARK   13  A    between atoms: _25  and  _26
REMARK   14  A    between atoms: _25  and  _28
REMARK   15  A    between atoms: _28  and  _29
REMARK   16  A    between atoms: _32  and  _34
REMARK   17  A    between atoms: _34  and  _35
REMARK   18  A    between atoms: _34  and  _37
REMARK   19  A    between atoms: _37  and  _38
REMARK   20  A    between atoms: _38  and  _39
REMARK   21  A    between atoms: _39  and  _40
REMARK   22  A    between atoms: _49  and  _51
REMARK   23  A    between atoms: _51  and  _52
REMARK   24  A    between atoms: _55  and  _57
REMARK   25  A    between atoms: _57  and  _58
REMARK   26  A    between atoms: _57  and  _60
REMARK   27  A    between atoms: _60  and  _61
REMARK   28  A    between atoms: _64  and  _66
REMARK   29  A    between atoms: _66  and  _67
REMARK   30  A    between atoms: _66  and  _69
REMARK   31  A    between atoms: _69  and  _70
REMARK   32  A    between atoms: _73  and  _75
REMARK   33  A    between atoms: _75  and  _76
REMARK   34  A    between atoms: _79  and  _81
REMARK   35  A    between atoms: _81  and  _82
REMARK   36  A    between atoms: _81  and  _84
REMARK   37  A    between atoms: _84  and  _85
REMARK   38  A    between atoms: _85  and  _86
REMARK   39  A    between atoms: _88  and  _90
REMARK   40  A    between atoms: _90  and  _91
REMARK   41  A    between atoms: _90  and  _93
REMARK   42  A    between atoms: _93  and  _94
REMARK   43  A    between atoms: _97  and  _99
REMARK   44  A    between atoms: _99  and  _100
REMARK   45  A    between atoms: _99  and  _102
REMARK   46  A    between atoms: _102  and  _103
REMARK   47  A    between atoms: _106  and  _108
REMARK   48  A    between atoms: _108  and  _109
REMARK   49  A    between atoms: _108  and  _111
REMARK   50  A    between atoms: _111  and  _112
REMARK   51  A    between atoms: _122  and  _124
REMARK   52  A    between atoms: _124  and  _125
REMARK   53  A    between atoms: _124  and  _127
REMARK   54  A    between atoms: _127  and  _128
REMARK   55  A    between atoms: _128  and  _129
REMARK   56  A    between atoms: _131  and  _133
REMARK   57  A    between atoms: _133  and  _134
REMARK   58  A    between atoms: _133  and  _136
REMARK   59  A    between atoms: _136  and  _137
REMARK   60  A    between atoms: _140  and  _142
REMARK   61  A    between atoms: _142  and  _143
REMARK   62  A    between atoms: _142  and  _145
REMARK   63  A    between atoms: _145  and  _146
REMARK   64  A    between atoms: _149  and  _151
REMARK   65  A    between atoms: _151  and  _152
REMARK   66  A    between atoms: _151  and  _154
REMARK   67  A    between atoms: _154  and  _155
REMARK   68  A    between atoms: _155  and  _156
REMARK   69  A    between atoms: _156  and  _157
REMARK   70  A    between atoms: _166  and  _168
REMARK   71  A    between atoms: _168  and  _169
REMARK   72  A    between atoms: _168  and  _171
REMARK   73  A    between atoms: _171  and  _172
REMARK   74  A    between atoms: _172  and  _173
REMARK   75  A    between atoms: _176  and  _178
REMARK   76  A    between atoms: _178  and  _179
REMARK   77  A    between atoms: _178  and  _181
REMARK   78  A    between atoms: _181  and  _182
REMARK   79  A    between atoms: _182  and  _183
REMARK   80  A    between atoms: _189  and  _190
REMARK   81  A    between atoms: _195  and  _197
REMARK   82  A    between atoms: _197  and  _198
REMARK   83  A    between atoms: _197  and  _200
REMARK   84  A    between atoms: _200  and  _201
REMARK   85  A    between atoms: _204  and  _206
REMARK   86  A    between atoms: _206  and  _207
REMARK   87  A    between atoms: _209  and  _211
REMARK   88  A    between atoms: _211  and  _212
REMARK   89  A    between atoms: _214  and  _216
REMARK   90  A    between atoms: _216  and  _217
REMARK   91  A    between atoms: _216  and  _219
REMARK   92  A    between atoms: _219  and  _220
REMARK   93  A    between atoms: _230  and  _232
REMARK   94  A    between atoms: _232  and  _233
REMARK   95  A    between atoms: _232  and  _235
REMARK   96  A    between atoms: _235  and  _236
REMARK   97  A    between atoms: _236  and  _237
REMARK   98  A    between atoms: _237  and  _238
REMARK   99  A    between atoms: _238  and  _239
REMARK  100  A    between atoms: _243  and  _245
REMARK  101  A    between atoms: _245  and  _246
REMARK  102  A    between atoms: _249  and  _251
REMARK  103  A    between atoms: _251  and  _252
REMARK  104  A    between atoms: _251  and  _254
REMARK  105  A    between atoms: _254  and  _255
REMARK  106  A    between atoms: _260  and  _262
REMARK  107  A    between atoms: _262  and  _263
REMARK  108  A    between atoms: _262  and  _265
REMARK  109  A    between atoms: _265  and  _266
REMARK  110  A    between atoms: _266  and  _267
REMARK  111  A    between atoms: _267  and  _268
REMARK  112  A    between atoms: _277  and  _279
REMARK  113  A    between atoms: _279  and  _280
REMARK  114  A    between atoms: _279  and  _282
REMARK  115  A    between atoms: _282  and  _283
REMARK  116  A    between atoms: _286  and  _288
REMARK  117  A    between atoms: _288  and  _289
REMARK  118  A    between atoms: _288  and  _291
REMARK  119  A    between atoms: _291  and  _292
REMARK  120  A    between atoms: _295  and  _297
REMARK  121  A    between atoms: _297  and  _298
REMARK  122  A    between atoms: _297  and  _300
REMARK  123  A    between atoms: _300  and  _301
REMARK  124  A    between atoms: _304  and  _306
REMARK  125  A    between atoms: _306  and  _307
REMARK  126  A    between atoms: _306  and  _309
REMARK  127  A    between atoms: _309  and  _310
REMARK  128  A    between atoms: _313  and  _315
REMARK  129  A    between atoms: _315  and  _316
REMARK  130  A    between atoms: _315  and  _318
REMARK  131  A    between atoms: _318  and  _319
REMARK  132  A    between atoms: _319  and  _320
REMARK  133  A    between atoms: _322  and  _324
REMARK  134  A    between atoms: _324  and  _325
REMARK  135  A    between atoms: _324  and  _327
REMARK  136  A    between atoms: _327  and  _328
REMARK  137  A    between atoms: _331  and  _333
REMARK  138  A    between atoms: _333  and  _334
REMARK  139  A    between atoms: _333  and  _336
REMARK  140  A    between atoms: _338  and  _340
REMARK  141  A    between atoms: _340  and  _341
REMARK  142  A    between atoms: _340  and  _343
REMARK  143  A    between atoms: _343  and  _344
REMARK  144  A    between atoms: _344  and  _345
REMARK  145  A    between atoms: _345  and  _346
REMARK  146  A    between atoms: _355  and  _357
REMARK  147  A    between atoms: _357  and  _358
REMARK  148  A    between atoms: _360  and  _362
REMARK  149  A    between atoms: _362  and  _363
REMARK  150  A    between atoms: _362  and  _365
REMARK  151  A    between atoms: _365  and  _366
REMARK                            x       y       z     vdW  Elec       q    Type
REMARK                         _______ _______ _______ _____ _____    ______ ____
ROOT
ATOM      1  O   HOH     1      82.364  -2.824  35.298  0.00  0.00    +0.000 OA
ENDROOT
TORSDOF 0
REMARK  Name = ../refined-set-2016/2bo4/2bo4_pocket.pdb
REMARK  151 active torsions:
REMARK  status: ('A' for Active; 'I' for Inactive)
REMARK    1  A    between atoms: _1  and  _3
REMARK    2  A    between atoms: _3  and  _4
REMARK    3  A    between atoms: _3  and  _6
REMARK    4  A    between atoms: _6  and  _7
REMARK    5  A    between atoms: _7  and  _8
REMARK    6  A    between atoms: _8  and  _9
REMARK    7  A    between atoms: _9  and  _10
REMARK    8  A    between atoms: _14  and  _16
REMARK    9  A    between atoms: _16  and  _17
REMARK   10  A    between atoms: _16  and  _19
REMARK   11  A    between atoms: _19  and  _20
REMARK   12  A    between atoms: _23  and  _25
REMARK   13  A    between atoms: _25  and  _26
REMARK   14  A    between atoms: _25  and  _28
REMARK   15  A    between atoms: _28  and  _29
REMARK   16  A    between atoms: _32  and  _34
REMARK   17  A    between atoms: _34  and  _35
REMARK   18  A    between atoms: _34  and  _37
REMARK   19  A    between atoms: _37  and  _38
REMARK   20  A    between atoms: _38  and  _39
REMARK   21  A    between atoms: _39  and  _40
REMARK   22  A    between atoms: _49  and  _51
REMARK   23  A    between atoms: _51  and  _52
REMARK   24  A    between atoms: _55  and  _57
REMARK   25  A    between atoms: _57  and  _58
REMARK   26  A    between atoms: _57  and  _60
REMARK   27  A    between atoms: _60  and  _61
REMARK   28  A    between atoms: _64  and  _66
REMARK   29  A    between atoms: _66  and  _67
REMARK   30  A    between atoms: _66  and  _69
REMARK   31  A    between atoms: _69  and  _70
REMARK   32  A    between atoms: _73  and  _75
REMARK   33  A    between atoms: _75  and  _76
REMARK   34  A    between atoms: _79  and  _81
REMARK   35  A    between atoms: _81  and  _82
REMARK   36  A    between atoms: _81  and  _84
REMARK   37  A    between atoms: _84  and  _85
REMARK   38  A    between atoms: _85  and  _86
REMARK   39  A    between atoms: _88  and  _90
REMARK   40  A    between atoms: _90  and  _91
REMARK   41  A    between atoms: _90  and  _93
REMARK   42  A    between atoms: _93  and  _94
REMARK   43  A    between atoms: _97  and  _99
REMARK   44  A    between atoms: _99  and  _100
REMARK   45  A    between atoms: _99  and  _102
REMARK   46  A    between atoms: _102  and  _103
REMARK   47  A    between atoms: _106  and  _108
REMARK   48  A    between atoms: _108  and  _109
REMARK   49  A    between atoms: _108  and  _111
REMARK   50  A    between atoms: _111  and  _112
REMARK   51  A    between atoms: _122  and  _124
REMARK   52  A    between atoms: _124  and  _125
REMARK   53  A    between atoms: _124  and  _127
REMARK   54  A    between atoms: _127  and  _128
REMARK   55  A    between atoms: _128  and  _129
REMARK   56  A    between atoms: _131  and  _133
REMARK   57  A    between atoms: _133  and  _134
REMARK   58  A    between atoms: _133  and  _136
REMARK   59  A    between atoms: _136  and  _137
REMARK   60  A    between atoms: _140  and  _142
REMARK   61  A    between atoms: _142  and  _143
REMARK   62  A    between atoms: _142  and  _145
REMARK   63  A    between atoms: _145  and  _146
REMARK   64  A    between atoms: _149  and  _151
REMARK   65  A    between atoms: _151  and  _152
REMARK   66  A    between atoms: _151  and  _154
REMARK   67  A    between atoms: _154  and  _155
REMARK   68  A    between atoms: _155  and  _156
REMARK   69  A    between atoms: _156  and  _157
REMARK   70  A    between atoms: _166  and  _168
REMARK   71  A    between atoms: _168  and  _169
REMARK   72  A    between atoms: _168  and  _171
REMARK   73  A    between atoms: _171  and  _172
REMARK   74  A    between atoms: _172  and  _173
REMARK   75  A    between atoms: _176  and  _178
REMARK   76  A    between atoms: _178  and  _179
REMARK   77  A    between atoms: _178  and  _181
REMARK   78  A    between atoms: _181  and  _182
REMARK   79  A    between atoms: _182  and  _183
REMARK   80  A    between atoms: _189  and  _190
REMARK   81  A    between atoms: _195  and  _197
REMARK   82  A    between atoms: _197  and  _198
REMARK   83  A    between atoms: _197  and  _200
REMARK   84  A    between atoms: _200  and  _201
REMARK   85  A    between atoms: _204  and  _206
REMARK   86  A    between atoms: _206  and  _207
REMARK   87  A    between atoms: _209  and  _211
REMARK   88  A    between atoms: _211  and  _212
REMARK   89  A    between atoms: _214  and  _216
REMARK   90  A    between atoms: _216  and  _217
REMARK   91  A    between atoms: _216  and  _219
REMARK   92  A    between atoms: _219  and  _220
REMARK   93  A    between atoms: _230  and  _232
REMARK   94  A    between atoms: _232  and  _233
REMARK   95  A    between atoms: _232  and  _235
REMARK   96  A    between atoms: _235  and  _236
REMARK   97  A    between atoms: _236  and  _237
REMARK   98  A    between atoms: _237  and  _238
REMARK   99  A    between atoms: _238  and  _239
REMARK  100  A    between atoms: _243  and  _245
REMARK  101  A    between atoms: _245  and  _246
REMARK  102  A    between atoms: _249  and  _251
REMARK  103  A    between atoms: _251  and  _252
REMARK  104  A    between atoms: _251  and  _254
REMARK  105  A    between atoms: _254  and  _255
REMARK  106  A    between atoms: _260  and  _262
REMARK  107  A    between atoms: _262  and  _263
REMARK  108  A    between atoms: _262  and  _265
REMARK  109  A    between atoms: _265  and  _266
REMARK  110  A    between atoms: _266  and  _267
REMARK  111  A    between atoms: _267  and  _268
REMARK  112  A    between atoms: _277  and  _279
REMARK  113  A    between atoms: _279  and  _280
REMARK  114  A    between atoms: _279  and  _282
REMARK  115  A    between atoms: _282  and  _283
REMARK  116  A    between atoms: _286  and  _288
REMARK  117  A    between atoms: _288  and  _289
REMARK  118  A    between atoms: _288  and  _291
REMARK  119  A    between atoms: _291  and  _292
REMARK  120  A    between atoms: _295  and  _297
REMARK  121  A    between atoms: _297  and  _298
REMARK  122  A    between atoms: _297  and  _300
REMARK  123  A    between atoms: _300  and  _301
REMARK  124  A    between atoms: _304  and  _306
REMARK  125  A    between atoms: _306  and  _307
REMARK  126  A    between atoms: _306  and  _309
REMARK  127  A    between atoms: _309  and  _310
REMARK  128  A    between atoms: _313  and  _315
REMARK  129  A    between atoms: _315  and  _316
REMARK  130  A    between atoms: _315  and  _318
REMARK  131  A    between atoms: _318  and  _319
REMARK  132  A    between atoms: _319  and  _320
REMARK  133  A    between atoms: _322  and  _324
REMARK  134  A    between atoms: _324  and  _325
REMARK  135  A    between atoms: _324  and  _327
REMARK  136  A    between atoms: _327  and  _328
REMARK  137  A    between atoms: _331  and  _333
REMARK  138  A    between atoms: _333  and  _334
REMARK  139  A    between atoms: _333  and  _336
REMARK  140  A    between atoms: _338  and  _340
REMARK  141  A    between atoms: _340  and  _341
REMARK  142  A    between atoms: _340  and  _343
REMARK  143  A    between atoms: _343  and  _344
REMARK  144  A    between atoms: _344  and  _345
REMARK  145  A    between atoms: _345  and  _346
REMARK  146  A    between atoms: _355  and  _357
REMARK  147  A    between atoms: _357  and  _358
REMARK  148  A    between atoms: _360  and  _362
REMARK  149  A    between atoms: _362  and  _363
REMARK  150  A    between atoms: _362  and  _365
REMARK  151  A    between atoms: _365  and  _366
REMARK                            x       y       z     vdW  Elec       q    Type
REMARK                         _______ _______ _______ _____ _____    ______ ____
ROOT
ATOM      1  O   HOH     1      77.124  -3.752  36.844  0.00  0.00    +0.000 OA
ENDROOT
TORSDOF 0
REMARK  Name = ../refined-set-2016/2bo4/2bo4_pocket.pdb
REMARK  151 active torsions:
REMARK  status: ('A' for Active; 'I' for Inactive)
REMARK    1  A    between atoms: _1  and  _3
REMARK    2  A    between atoms: _3  and  _4
REMARK    3  A    between atoms: _3  and  _6
REMARK    4  A    between atoms: _6  and  _7
REMARK    5  A    between atoms: _7  and  _8
REMARK    6  A    between atoms: _8  and  _9
REMARK    7  A    between atoms: _9  and  _10
REMARK    8  A    between atoms: _14  and  _16
REMARK    9  A    between atoms: _16  and  _17
REMARK   10  A    between atoms: _16  and  _19
REMARK   11  A    between atoms: _19  and  _20
REMARK   12  A    between atoms: _23  and  _25
REMARK   13  A    between atoms: _25  and  _26
REMARK   14  A    between atoms: _25  and  _28
REMARK   15  A    between atoms: _28  and  _29
REMARK   16  A    between atoms: _32  and  _34
REMARK   17  A    between atoms: _34  and  _35
REMARK   18  A    between atoms: _34  and  _37
REMARK   19  A    between atoms: _37  and  _38
REMARK   20  A    between atoms: _38  and  _39
REMARK   21  A    between atoms: _39  and  _40
REMARK   22  A    between atoms: _49  and  _51
REMARK   23  A    between atoms: _51  and  _52
REMARK   24  A    between atoms: _55  and  _57
REMARK   25  A    between atoms: _57  and  _58
REMARK   26  A    between atoms: _57  and  _60
REMARK   27  A    between atoms: _60  and  _61
REMARK   28  A    between atoms: _64  and  _66
REMARK   29  A    between atoms: _66  and  _67
REMARK   30  A    between atoms: _66  and  _69
REMARK   31  A    between atoms: _69  and  _70
REMARK   32  A    between atoms: _73  and  _75
REMARK   33  A    between atoms: _75  and  _76
REMARK   34  A    between atoms: _79  and  _81
REMARK   35  A    between atoms: _81  and  _82
REMARK   36  A    between atoms: _81  and  _84
REMARK   37  A    between atoms: _84  and  _85
REMARK   38  A    between atoms: _85  and  _86
REMARK   39  A    between atoms: _88  and  _90
REMARK   40  A    between atoms: _90  and  _91
REMARK   41  A    between atoms: _90  and  _93
REMARK   42  A    between atoms: _93  and  _94
REMARK   43  A    between atoms: _97  and  _99
REMARK   44  A    between atoms: _99  and  _100
REMARK   45  A    between atoms: _99  and  _102
REMARK   46  A    between atoms: _102  and  _103
REMARK   47  A    between atoms: _106  and  _108
REMARK   48  A    between atoms: _108  and  _109
REMARK   49  A    between atoms: _108  and  _111
REMARK   50  A    between atoms: _111  and  _112
REMARK   51  A    between atoms: _122  and  _124
REMARK   52  A    between atoms: _124  and  _125
REMARK   53  A    between atoms: _124  and  _127
REMARK   54  A    between atoms: _127  and  _128
REMARK   55  A    between atoms: _128  and  _129
REMARK   56  A    between atoms: _131  and  _133
REMARK   57  A    between atoms: _133  and  _134
REMARK   58  A    between atoms: _133  and  _136
REMARK   59  A    between atoms: _136  and  _137
REMARK   60  A    between atoms: _140  and  _142
REMARK   61  A    between atoms: _142  and  _143
REMARK   62  A    between atoms: _142  and  _145
REMARK   63  A    between atoms: _145  and  _146
REMARK   64  A    between atoms: _149  and  _151
REMARK   65  A    between atoms: _151  and  _152
REMARK   66  A    between atoms: _151  and  _154
REMARK   67  A    between atoms: _154  and  _155
REMARK   68  A    between atoms: _155  and  _156
REMARK   69  A    between atoms: _156  and  _157
REMARK   70  A    between atoms: _166  and  _168
REMARK   71  A    between atoms: _168  and  _169
REMARK   72  A    between atoms: _168  and  _171
REMARK   73  A    between atoms: _171  and  _172
REMARK   74  A    between atoms: _172  and  _173
REMARK   75  A    between atoms: _176  and  _178
REMARK   76  A    between atoms: _178  and  _179
REMARK   77  A    between atoms: _178  and  _181
REMARK   78  A    between atoms: _181  and  _182
REMARK   79  A    between atoms: _182  and  _183
REMARK   80  A    between atoms: _189  and  _190
REMARK   81  A    between atoms: _195  and  _197
REMARK   82  A    between atoms: _197  and  _198
REMARK   83  A    between atoms: _197  and  _200
REMARK   84  A    between atoms: _200  and  _201
REMARK   85  A    between atoms: _204  and  _206
REMARK   86  A    between atoms: _206  and  _207
REMARK   87  A    between atoms: _209  and  _211
REMARK   88  A    between atoms: _211  and  _212
REMARK   89  A    between atoms: _214  and  _216
REMARK   90  A    between atoms: _216  and  _217
REMARK   91  A    between atoms: _216  and  _219
REMARK   92  A    between atoms: _219  and  _220
REMARK   93  A    between atoms: _230  and  _232
REMARK   94  A    between atoms: _232  and  _233
REMARK   95  A    between atoms: _232  and  _235
REMARK   96  A    between atoms: _235  and  _236
REMARK   97  A    between atoms: _236  and  _237
REMARK   98  A    between atoms: _237  and  _238
REMARK   99  A    between atoms: _238  and  _239
REMARK  100  A    between atoms: _243  and  _245
REMARK  101  A    between atoms: _245  and  _246
REMARK  102  A    between atoms: _249  and  _251
REMARK  103  A    between atoms: _251  and  _252
REMARK  104  A    between atoms: _251  and  _254
REMARK  105  A    between atoms: _254  and  _255
REMARK  106  A    between atoms: _260  and  _262
REMARK  107  A    between atoms: _262  and  _263
REMARK  108  A    between atoms: _262  and  _265
REMARK  109  A    between atoms: _265  and  _266
REMARK  110  A    between atoms: _266  and  _267
REMARK  111  A    between atoms: _267  and  _268
REMARK  112  A    between atoms: _277  and  _279
REMARK  113  A    between atoms: _279  and  _280
REMARK  114  A    between atoms: _279  and  _282
REMARK  115  A    between atoms: _282  and  _283
REMARK  116  A    between atoms: _286  and  _288
REMARK  117  A    between atoms: _288  and  _289
REMARK  118  A    between atoms: _288  and  _291
REMARK  119  A    between atoms: _291  and  _292
REMARK  120  A    between atoms: _295  and  _297
REMARK  121  A    between atoms: _297  and  _298
REMARK  122  A    between atoms: _297  and  _300
REMARK  123  A    between atoms: _300  and  _301
REMARK  124  A    between atoms: _304  and  _306
REMARK  125  A    between atoms: _306  and  _307
REMARK  126  A    between atoms: _306  and  _309
REMARK  127  A    between atoms: _309  and  _310
REMARK  128  A    between atoms: _313  and  _315
REMARK  129  A    between atoms: _315  and  _316
REMARK  130  A    between atoms: _315  and  _318
REMARK  131  A    between atoms: _318  and  _319
REMARK  132  A    between atoms: _319  and  _320
REMARK  133  A    between atoms: _322  and  _324
REMARK  134  A    between atoms: _324  and  _325
REMARK  135  A    between atoms: _324  and  _327
REMARK  136  A    between atoms: _327  and  _328
REMARK  137  A    between atoms: _331  and  _333
REMARK  138  A    between atoms: _333  and  _334
REMARK  139  A    between atoms: _333  and  _336
REMARK  140  A    between atoms: _338  and  _340
REMARK  141  A    between atoms: _340  and  _341
REMARK  142  A    between atoms: _340  and  _343
REMARK  143  A    between atoms: _343  and  _344
REMARK  144  A    between atoms: _344  and  _345
REMARK  145  A    between atoms: _345  and  _346
REMARK  146  A    between atoms: _355  and  _357
REMARK  147  A    between atoms: _357  and  _358
REMARK  148  A    between atoms: _360  and  _362
REMARK  149  A    between atoms: _362  and  _363
REMARK  150  A    between atoms: _362  and  _365
REMARK  151  A    between atoms: _365  and  _366
REMARK                            x       y       z     vdW  Elec       q    Type
REMARK                         _______ _______ _______ _____ _____    ______ ____
ROOT
ATOM      1  O   HOH     1      78.685  -4.418  38.358  0.00  0.00    +0.000 OA
ENDROOT
TORSDOF 0
REMARK  Name = ../refined-set-2016/2bo4/2bo4_pocket.pdb
REMARK  151 active torsions:
REMARK  status: ('A' for Active; 'I' for Inactive)
REMARK    1  A    between atoms: _1  and  _3
REMARK    2  A    between atoms: _3  and  _4
REMARK    3  A    between atoms: _3  and  _6
REMARK    4  A    between atoms: _6  and  _7
REMARK    5  A    between atoms: _7  and  _8
REMARK    6  A    between atoms: _8  and  _9
REMARK    7  A    between atoms: _9  and  _10
REMARK    8  A    between atoms: _14  and  _16
REMARK    9  A    between atoms: _16  and  _17
REMARK   10  A    between atoms: _16  and  _19
REMARK   11  A    between atoms: _19  and  _20
REMARK   12  A    between atoms: _23  and  _25
REMARK   13  A    between atoms: _25  and  _26
REMARK   14  A    between atoms: _25  and  _28
REMARK   15  A    between atoms: _28  and  _29
REMARK   16  A    between atoms: _32  and  _34
REMARK   17  A    between atoms: _34  and  _35
REMARK   18  A    between atoms: _34  and  _37
REMARK   19  A    between atoms: _37  and  _38
REMARK   20  A    between atoms: _38  and  _39
REMARK   21  A    between atoms: _39  and  _40
REMARK   22  A    between atoms: _49  and  _51
REMARK   23  A    between atoms: _51  and  _52
REMARK   24  A    between atoms: _55  and  _57
REMARK   25  A    between atoms: _57  and  _58
REMARK   26  A    between atoms: _57  and  _60
REMARK   27  A    between atoms: _60  and  _61
REMARK   28  A    between atoms: _64  and  _66
REMARK   29  A    between atoms: _66  and  _67
REMARK   30  A    between atoms: _66  and  _69
REMARK   31  A    between atoms: _69  and  _70
REMARK   32  A    between atoms: _73  and  _75
REMARK   33  A    between atoms: _75  and  _76
REMARK   34  A    between atoms: _79  and  _81
REMARK   35  A    between atoms: _81  and  _82
REMARK   36  A    between atoms: _81  and  _84
REMARK   37  A    between atoms: _84  and  _85
REMARK   38  A    between atoms: _85  and  _86
REMARK   39  A    between atoms: _88  and  _90
REMARK   40  A    between atoms: _90  and  _91
REMARK   41  A    between atoms: _90  and  _93
REMARK   42  A    between atoms: _93  and  _94
REMARK   43  A    between atoms: _97  and  _99
REMARK   44  A    between atoms: _99  and  _100
REMARK   45  A    between atoms: _99  and  _102
REMARK   46  A    between atoms: _102  and  _103
REMARK   47  A    between atoms: _106  and  _108
REMARK   48  A    between atoms: _108  and  _109
REMARK   49  A    between atoms: _108  and  _111
REMARK   50  A    between atoms: _111  and  _112
REMARK   51  A    between atoms: _122  and  _124
REMARK   52  A    between atoms: _124  and  _125
REMARK   53  A    between atoms: _124  and  _127
REMARK   54  A    between atoms: _127  and  _128
REMARK   55  A    between atoms: _128  and  _129
REMARK   56  A    between atoms: _131  and  _133
REMARK   57  A    between atoms: _133  and  _134
REMARK   58  A    between atoms: _133  and  _136
REMARK   59  A    between atoms: _136  and  _137
REMARK   60  A    between atoms: _140  and  _142
REMARK   61  A    between atoms: _142  and  _143
REMARK   62  A    between atoms: _142  and  _145
REMARK   63  A    between atoms: _145  and  _146
REMARK   64  A    between atoms: _149  and  _151
REMARK   65  A    between atoms: _151  and  _152
REMARK   66  A    between atoms: _151  and  _154
REMARK   67  A    between atoms: _154  and  _155
REMARK   68  A    between atoms: _155  and  _156
REMARK   69  A    between atoms: _156  and  _157
REMARK   70  A    between atoms: _166  and  _168
REMARK   71  A    between atoms: _168  and  _169
REMARK   72  A    between atoms: _168  and  _171
REMARK   73  A    between atoms: _171  and  _172
REMARK   74  A    between atoms: _172  and  _173
REMARK   75  A    between atoms: _176  and  _178
REMARK   76  A    between atoms: _178  and  _179
REMARK   77  A    between atoms: _178  and  _181
REMARK   78  A    between atoms: _181  and  _182
REMARK   79  A    between atoms: _182  and  _183
REMARK   80  A    between atoms: _189  and  _190
REMARK   81  A    between atoms: _195  and  _197
REMARK   82  A    between atoms: _197  and  _198
REMARK   83  A    between atoms: _197  and  _200
REMARK   84  A    between atoms: _200  and  _201
REMARK   85  A    between atoms: _204  and  _206
REMARK   86  A    between atoms: _206  and  _207
REMARK   87  A    between atoms: _209  and  _211
REMARK   88  A    between atoms: _211  and  _212
REMARK   89  A    between atoms: _214  and  _216
REMARK   90  A    between atoms: _216  and  _217
REMARK   91  A    between atoms: _216  and  _219
REMARK   92  A    between atoms: _219  and  _220
REMARK   93  A    between atoms: _230  and  _232
REMARK   94  A    between atoms: _232  and  _233
REMARK   95  A    between atoms: _232  and  _235
REMARK   96  A    between atoms: _235  and  _236
REMARK   97  A    between atoms: _236  and  _237
REMARK   98  A    between atoms: _237  and  _238
REMARK   99  A    between atoms: _238  and  _239
REMARK  100  A    between atoms: _243  and  _245
REMARK  101  A    between atoms: _245  and  _246
REMARK  102  A    between atoms: _249  and  _251
REMARK  103  A    between atoms: _251  and  _252
REMARK  104  A    between atoms: _251  and  _254
REMARK  105  A    between atoms: _254  and  _255
REMARK  106  A    between atoms: _260  and  _262
REMARK  107  A    between atoms: _262  and  _263
REMARK  108  A    between atoms: _262  and  _265
REMARK  109  A    between atoms: _265  and  _266
REMARK  110  A    between atoms: _266  and  _267
REMARK  111  A    between atoms: _267  and  _268
REMARK  112  A    between atoms: _277  and  _279
REMARK  113  A    between atoms: _279  and  _280
REMARK  114  A    between atoms: _279  and  _282
REMARK  115  A    between atoms: _282  and  _283
REMARK  116  A    between atoms: _286  and  _288
REMARK  117  A    between atoms: _288  and  _289
REMARK  118  A    between atoms: _288  and  _291
REMARK  119  A    between atoms: _291  and  _292
REMARK  120  A    between atoms: _295  and  _297
REMARK  121  A    between atoms: _297  and  _298
REMARK  122  A    between atoms: _297  and  _300
REMARK  123  A    between atoms: _300  and  _301
REMARK  124  A    between atoms: _304  and  _306
REMARK  125  A    between atoms: _306  and  _307
REMARK  126  A    between atoms: _306  and  _309
REMARK  127  A    between atoms: _309  and  _310
REMARK  128  A    between atoms: _313  and  _315
REMARK  129  A    between atoms: _315  and  _316
REMARK  130  A    between atoms: _315  and  _318
REMARK  131  A    between atoms: _318  and  _319
REMARK  132  A    between atoms: _319  and  _320
REMARK  133  A    between atoms: _322  and  _324
REMARK  134  A    between atoms: _324  and  _325
REMARK  135  A    between atoms: _324  and  _327
REMARK  136  A    between atoms: _327  and  _328
REMARK  137  A    between atoms: _331  and  _333
REMARK  138  A    between atoms: _333  and  _334
REMARK  139  A    between atoms: _333  and  _336
REMARK  140  A    between atoms: _338  and  _340
REMARK  141  A    between atoms: _340  and  _341
REMARK  142  A    between atoms: _340  and  _343
REMARK  143  A    between atoms: _343  and  _344
REMARK  144  A    between atoms: _344  and  _345
REMARK  145  A    between atoms: _345  and  _346
REMARK  146  A    between atoms: _355  and  _357
REMARK  147  A    between atoms: _357  and  _358
REMARK  148  A    between atoms: _360  and  _362
REMARK  149  A    between atoms: _362  and  _363
REMARK  150  A    between atoms: _362  and  _365
REMARK  151  A    between atoms: _365  and  _366
REMARK                            x       y       z     vdW  Elec       q    Type
REMARK                         _______ _______ _______ _____ _____    ______ ____
ROOT
ATOM      1  O   HOH     1      83.779  -7.392  35.952  0.00  0.00    +0.000 OA
ENDROOT
TORSDOF 0
REMARK  Name = ../refined-set-2016/2bo4/2bo4_pocket.pdb
REMARK  151 active torsions:
REMARK  status: ('A' for Active; 'I' for Inactive)
REMARK    1  A    between atoms: _1  and  _3
REMARK    2  A    between atoms: _3  and  _4
REMARK    3  A    between atoms: _3  and  _6
REMARK    4  A    between atoms: _6  and  _7
REMARK    5  A    between atoms: _7  and  _8
REMARK    6  A    between atoms: _8  and  _9
REMARK    7  A    between atoms: _9  and  _10
REMARK    8  A    between atoms: _14  and  _16
REMARK    9  A    between atoms: _16  and  _17
REMARK   10  A    between atoms: _16  and  _19
REMARK   11  A    between atoms: _19  and  _20
REMARK   12  A    between atoms: _23  and  _25
REMARK   13  A    between atoms: _25  and  _26
REMARK   14  A    between atoms: _25  and  _28
REMARK   15  A    between atoms: _28  and  _29
REMARK   16  A    between atoms: _32  and  _34
REMARK   17  A    between atoms: _34  and  _35
REMARK   18  A    between atoms: _34  and  _37
REMARK   19  A    between atoms: _37  and  _38
REMARK   20  A    between atoms: _38  and  _39
REMARK   21  A    between atoms: _39  and  _40
REMARK   22  A    between atoms: _49  and  _51
REMARK   23  A    between atoms: _51  and  _52
REMARK   24  A    between atoms: _55  and  _57
REMARK   25  A    between atoms: _57  and  _58
REMARK   26  A    between atoms: _57  and  _60
REMARK   27  A    between atoms: _60  and  _61
REMARK   28  A    between atoms: _64  and  _66
REMARK   29  A    between atoms: _66  and  _67
REMARK   30  A    between atoms: _66  and  _69
REMARK   31  A    between atoms: _69  and  _70
REMARK   32  A    between atoms: _73  and  _75
REMARK   33  A    between atoms: _75  and  _76
REMARK   34  A    between atoms: _79  and  _81
REMARK   35  A    between atoms: _81  and  _82
REMARK   36  A    between atoms: _81  and  _84
REMARK   37  A    between atoms: _84  and  _85
REMARK   38  A    between atoms: _85  and  _86
REMARK   39  A    between atoms: _88  and  _90
REMARK   40  A    between atoms: _90  and  _91
REMARK   41  A    between atoms: _90  and  _93
REMARK   42  A    between atoms: _93  and  _94
REMARK   43  A    between atoms: _97  and  _99
REMARK   44  A    between atoms: _99  and  _100
REMARK   45  A    between atoms: _99  and  _102
REMARK   46  A    between atoms: _102  and  _103
REMARK   47  A    between atoms: _106  and  _108
REMARK   48  A    between atoms: _108  and  _109
REMARK   49  A    between atoms: _108  and  _111
REMARK   50  A    between atoms: _111  and  _112
REMARK   51  A    between atoms: _122  and  _124
REMARK   52  A    between atoms: _124  and  _125
REMARK   53  A    between atoms: _124  and  _127
REMARK   54  A    between atoms: _127  and  _128
REMARK   55  A    between atoms: _128  and  _129
REMARK   56  A    between atoms: _131  and  _133
REMARK   57  A    between atoms: _133  and  _134
REMARK   58  A    between atoms: _133  and  _136
REMARK   59  A    between atoms: _136  and  _137
REMARK   60  A    between atoms: _140  and  _142
REMARK   61  A    between atoms: _142  and  _143
REMARK   62  A    between atoms: _142  and  _145
REMARK   63  A    between atoms: _145  and  _146
REMARK   64  A    between atoms: _149  and  _151
REMARK   65  A    between atoms: _151  and  _152
REMARK   66  A    between atoms: _151  and  _154
REMARK   67  A    between atoms: _154  and  _155
REMARK   68  A    between atoms: _155  and  _156
REMARK   69  A    between atoms: _156  and  _157
REMARK   70  A    between atoms: _166  and  _168
REMARK   71  A    between atoms: _168  and  _169
REMARK   72  A    between atoms: _168  and  _171
REMARK   73  A    between atoms: _171  and  _172
REMARK   74  A    between atoms: _172  and  _173
REMARK   75  A    between atoms: _176  and  _178
REMARK   76  A    between atoms: _178  and  _179
REMARK   77  A    between atoms: _178  and  _181
REMARK   78  A    between atoms: _181  and  _182
REMARK   79  A    between atoms: _182  and  _183
REMARK   80  A    between atoms: _189  and  _190
REMARK   81  A    between atoms: _195  and  _197
REMARK   82  A    between atoms: _197  and  _198
REMARK   83  A    between atoms: _197  and  _200
REMARK   84  A    between atoms: _200  and  _201
REMARK   85  A    between atoms: _204  and  _206
REMARK   86  A    between atoms: _206  and  _207
REMARK   87  A    between atoms: _209  and  _211
REMARK   88  A    between atoms: _211  and  _212
REMARK   89  A    between atoms: _214  and  _216
REMARK   90  A    between atoms: _216  and  _217
REMARK   91  A    between atoms: _216  and  _219
REMARK   92  A    between atoms: _219  and  _220
REMARK   93  A    between atoms: _230  and  _232
REMARK   94  A    between atoms: _232  and  _233
REMARK   95  A    between atoms: _232  and  _235
REMARK   96  A    between atoms: _235  and  _236
REMARK   97  A    between atoms: _236  and  _237
REMARK   98  A    between atoms: _237  and  _238
REMARK   99  A    between atoms: _238  and  _239
REMARK  100  A    between atoms: _243  and  _245
REMARK  101  A    between atoms: _245  and  _246
REMARK  102  A    between atoms: _249  and  _251
REMARK  103  A    between atoms: _251  and  _252
REMARK  104  A    between atoms: _251  and  _254
REMARK  105  A    between atoms: _254  and  _255
REMARK  106  A    between atoms: _260  and  _262
REMARK  107  A    between atoms: _262  and  _263
REMARK  108  A    between atoms: _262  and  _265
REMARK  109  A    between atoms: _265  and  _266
REMARK  110  A    between atoms: _266  and  _267
REMARK  111  A    between atoms: _267  and  _268
REMARK  112  A    between atoms: _277  and  _279
REMARK  113  A    between atoms: _279  and  _280
REMARK  114  A    between atoms: _279  and  _282
REMARK  115  A    between atoms: _282  and  _283
REMARK  116  A    between atoms: _286  and  _288
REMARK  117  A    between atoms: _288  and  _289
REMARK  118  A    between atoms: _288  and  _291
REMARK  119  A    between atoms: _291  and  _292
REMARK  120  A    between atoms: _295  and  _297
REMARK  121  A    between atoms: _297  and  _298
REMARK  122  A    between atoms: _297  and  _300
REMARK  123  A    between atoms: _300  and  _301
REMARK  124  A    between atoms: _304  and  _306
REMARK  125  A    between atoms: _306  and  _307
REMARK  126  A    between atoms: _306  and  _309
REMARK  127  A    between atoms: _309  and  _310
REMARK  128  A    between atoms: _313  and  _315
REMARK  129  A    between atoms: _315  and  _316
REMARK  130  A    between atoms: _315  and  _318
REMARK  131  A    between atoms: _318  and  _319
REMARK  132  A    between atoms: _319  and  _320
REMARK  133  A    between atoms: _322  and  _324
REMARK  134  A    between atoms: _324  and  _325
REMARK  135  A    between atoms: _324  and  _327
REMARK  136  A    between atoms: _327  and  _328
REMARK  137  A    between atoms: _331  and  _333
REMARK  138  A    between atoms: _333  and  _334
REMARK  139  A    between atoms: _333  and  _336
REMARK  140  A    between atoms: _338  and  _340
REMARK  141  A    between atoms: _340  and  _341
REMARK  142  A    between atoms: _340  and  _343
REMARK  143  A    between atoms: _343  and  _344
REMARK  144  A    between atoms: _344  and  _345
REMARK  145  A    between atoms: _345  and  _346
REMARK  146  A    between atoms: _355  and  _357
REMARK  147  A    between atoms: _357  and  _358
REMARK  148  A    between atoms: _360  and  _362
REMARK  149  A    between atoms: _362  and  _363
REMARK  150  A    between atoms: _362  and  _365
REMARK  151  A    between atoms: _365  and  _366
REMARK                            x       y       z     vdW  Elec       q    Type
REMARK                         _______ _______ _______ _____ _____    ______ ____
ROOT
ATOM      1  O   HOH     1      88.906  -1.749  36.457  0.00  0.00    +0.000 OA
ENDROOT
TORSDOF 0
REMARK  Name = ../refined-set-2016/2bo4/2bo4_pocket.pdb
REMARK  151 active torsions:
REMARK  status: ('A' for Active; 'I' for Inactive)
REMARK    1  A    between atoms: _1  and  _3
REMARK    2  A    between atoms: _3  and  _4
REMARK    3  A    between atoms: _3  and  _6
REMARK    4  A    between atoms: _6  and  _7
REMARK    5  A    between atoms: _7  and  _8
REMARK    6  A    between atoms: _8  and  _9
REMARK    7  A    between atoms: _9  and  _10
REMARK    8  A    between atoms: _14  and  _16
REMARK    9  A    between atoms: _16  and  _17
REMARK   10  A    between atoms: _16  and  _19
REMARK   11  A    between atoms: _19  and  _20
REMARK   12  A    between atoms: _23  and  _25
REMARK   13  A    between atoms: _25  and  _26
REMARK   14  A    between atoms: _25  and  _28
REMARK   15  A    between atoms: _28  and  _29
REMARK   16  A    between atoms: _32  and  _34
REMARK   17  A    between atoms: _34  and  _35
REMARK   18  A    between atoms: _34  and  _37
REMARK   19  A    between atoms: _37  and  _38
REMARK   20  A    between atoms: _38  and  _39
REMARK   21  A    between atoms: _39  and  _40
REMARK   22  A    between atoms: _49  and  _51
REMARK   23  A    between atoms: _51  and  _52
REMARK   24  A    between atoms: _55  and  _57
REMARK   25  A    between atoms: _57  and  _58
REMARK   26  A    between atoms: _57  and  _60
REMARK   27  A    between atoms: _60  and  _61
REMARK   28  A    between atoms: _64  and  _66
REMARK   29  A    between atoms: _66  and  _67
REMARK   30  A    between atoms: _66  and  _69
REMARK   31  A    between atoms: _69  and  _70
REMARK   32  A    between atoms: _73  and  _75
REMARK   33  A    between atoms: _75  and  _76
REMARK   34  A    between atoms: _79  and  _81
REMARK   35  A    between atoms: _81  and  _82
REMARK   36  A    between atoms: _81  and  _84
REMARK   37  A    between atoms: _84  and  _85
REMARK   38  A    between atoms: _85  and  _86
REMARK   39  A    between atoms: _88  and  _90
REMARK   40  A    between atoms: _90  and  _91
REMARK   41  A    between atoms: _90  and  _93
REMARK   42  A    between atoms: _93  and  _94
REMARK   43  A    between atoms: _97  and  _99
REMARK   44  A    between atoms: _99  and  _100
REMARK   45  A    between atoms: _99  and  _102
REMARK   46  A    between atoms: _102  and  _103
REMARK   47  A    between atoms: _106  and  _108
REMARK   48  A    between atoms: _108  and  _109
REMARK   49  A    between atoms: _108  and  _111
REMARK   50  A    between atoms: _111  and  _112
REMARK   51  A    between atoms: _122  and  _124
REMARK   52  A    between atoms: _124  and  _125
REMARK   53  A    between atoms: _124  and  _127
REMARK   54  A    between atoms: _127  and  _128
REMARK   55  A    between atoms: _128  and  _129
REMARK   56  A    between atoms: _131  and  _133
REMARK   57  A    between atoms: _133  and  _134
REMARK   58  A    between atoms: _133  and  _136
REMARK   59  A    between atoms: _136  and  _137
REMARK   60  A    between atoms: _140  and  _142
REMARK   61  A    between atoms: _142  and  _143
REMARK   62  A    between atoms: _142  and  _145
REMARK   63  A    between atoms: _145  and  _146
REMARK   64  A    between atoms: _149  and  _151
REMARK   65  A    between atoms: _151  and  _152
REMARK   66  A    between atoms: _151  and  _154
REMARK   67  A    between atoms: _154  and  _155
REMARK   68  A    between atoms: _155  and  _156
REMARK   69  A    between atoms: _156  and  _157
REMARK   70  A    between atoms: _166  and  _168
REMARK   71  A    between atoms: _168  and  _169
REMARK   72  A    between atoms: _168  and  _171
REMARK   73  A    between atoms: _171  and  _172
REMARK   74  A    between atoms: _172  and  _173
REMARK   75  A    between atoms: _176  and  _178
REMARK   76  A    between atoms: _178  and  _179
REMARK   77  A    between atoms: _178  and  _181
REMARK   78  A    between atoms: _181  and  _182
REMARK   79  A    between atoms: _182  and  _183
REMARK   80  A    between atoms: _189  and  _190
REMARK   81  A    between atoms: _195  and  _197
REMARK   82  A    between atoms: _197  and  _198
REMARK   83  A    between atoms: _197  and  _200
REMARK   84  A    between atoms: _200  and  _201
REMARK   85  A    between atoms: _204  and  _206
REMARK   86  A    between atoms: _206  and  _207
REMARK   87  A    between atoms: _209  and  _211
REMARK   88  A    between atoms: _211  and  _212
REMARK   89  A    between atoms: _214  and  _216
REMARK   90  A    between atoms: _216  and  _217
REMARK   91  A    between atoms: _216  and  _219
REMARK   92  A    between atoms: _219  and  _220
REMARK   93  A    between atoms: _230  and  _232
REMARK   94  A    between atoms: _232  and  _233
REMARK   95  A    between atoms: _232  and  _235
REMARK   96  A    between atoms: _235  and  _236
REMARK   97  A    between atoms: _236  and  _237
REMARK   98  A    between atoms: _237  and  _238
REMARK   99  A    between atoms: _238  and  _239
REMARK  100  A    between atoms: _243  and  _245
REMARK  101  A    between atoms: _245  and  _246
REMARK  102  A    between atoms: _249  and  _251
REMARK  103  A    between atoms: _251  and  _252
REMARK  104  A    between atoms: _251  and  _254
REMARK  105  A    between atoms: _254  and  _255
REMARK  106  A    between atoms: _260  and  _262
REMARK  107  A    between atoms: _262  and  _263
REMARK  108  A    between atoms: _262  and  _265
REMARK  109  A    between atoms: _265  and  _266
REMARK  110  A    between atoms: _266  and  _267
REMARK  111  A    between atoms: _267  and  _268
REMARK  112  A    between atoms: _277  and  _279
REMARK  113  A    between atoms: _279  and  _280
REMARK  114  A    between atoms: _279  and  _282
REMARK  115  A    between atoms: _282  and  _283
REMARK  116  A    between atoms: _286  and  _288
REMARK  117  A    between atoms: _288  and  _289
REMARK  118  A    between atoms: _288  and  _291
REMARK  119  A    between atoms: _291  and  _292
REMARK  120  A    between atoms: _295  and  _297
REMARK  121  A    between atoms: _297  and  _298
REMARK  122  A    between atoms: _297  and  _300
REMARK  123  A    between atoms: _300  and  _301
REMARK  124  A    between atoms: _304  and  _306
REMARK  125  A    between atoms: _306  and  _307
REMARK  126  A    between atoms: _306  and  _309
REMARK  127  A    between atoms: _309  and  _310
REMARK  128  A    between atoms: _313  and  _315
REMARK  129  A    between atoms: _315  and  _316
REMARK  130  A    between atoms: _315  and  _318
REMARK  131  A    between atoms: _318  and  _319
REMARK  132  A    between atoms: _319  and  _320
REMARK  133  A    between atoms: _322  and  _324
REMARK  134  A    between atoms: _324  and  _325
REMARK  135  A    between atoms: _324  and  _327
REMARK  136  A    between atoms: _327  and  _328
REMARK  137  A    between atoms: _331  and  _333
REMARK  138  A    between atoms: _333  and  _334
REMARK  139  A    between atoms: _333  and  _336
REMARK  140  A    between atoms: _338  and  _340
REMARK  141  A    between atoms: _340  and  _341
REMARK  142  A    between atoms: _340  and  _343
REMARK  143  A    between atoms: _343  and  _344
REMARK  144  A    between atoms: _344  and  _345
REMARK  145  A    between atoms: _345  and  _346
REMARK  146  A    between atoms: _355  and  _357
REMARK  147  A    between atoms: _357  and  _358
REMARK  148  A    between atoms: _360  and  _362
REMARK  149  A    between atoms: _362  and  _363
REMARK  150  A    between atoms: _362  and  _365
REMARK  151  A    between atoms: _365  and  _366
REMARK                            x       y       z     vdW  Elec       q    Type
REMARK                         _______ _______ _______ _____ _____    ______ ____
ROOT
ATOM      1  O   HOH     1      89.023   0.168  34.412  0.00  0.00    +0.000 OA
ENDROOT
TORSDOF 0
REMARK  Name = ../refined-set-2016/2bo4/2bo4_pocket.pdb
REMARK  151 active torsions:
REMARK  status: ('A' for Active; 'I' for Inactive)
REMARK    1  A    between atoms: _1  and  _3
REMARK    2  A    between atoms: _3  and  _4
REMARK    3  A    between atoms: _3  and  _6
REMARK    4  A    between atoms: _6  and  _7
REMARK    5  A    between atoms: _7  and  _8
REMARK    6  A    between atoms: _8  and  _9
REMARK    7  A    between atoms: _9  and  _10
REMARK    8  A    between atoms: _14  and  _16
REMARK    9  A    between atoms: _16  and  _17
REMARK   10  A    between atoms: _16  and  _19
REMARK   11  A    between atoms: _19  and  _20
REMARK   12  A    between atoms: _23  and  _25
REMARK   13  A    between atoms: _25  and  _26
REMARK   14  A    between atoms: _25  and  _28
REMARK   15  A    between atoms: _28  and  _29
REMARK   16  A    between atoms: _32  and  _34
REMARK   17  A    between atoms: _34  and  _35
REMARK   18  A    between atoms: _34  and  _37
REMARK   19  A    between atoms: _37  and  _38
REMARK   20  A    between atoms: _38  and  _39
REMARK   21  A    between atoms: _39  and  _40
REMARK   22  A    between atoms: _49  and  _51
REMARK   23  A    between atoms: _51  and  _52
REMARK   24  A    between atoms: _55  and  _57
REMARK   25  A    between atoms: _57  and  _58
REMARK   26  A    between atoms: _57  and  _60
REMARK   27  A    between atoms: _60  and  _61
REMARK   28  A    between atoms: _64  and  _66
REMARK   29  A    between atoms: _66  and  _67
REMARK   30  A    between atoms: _66  and  _69
REMARK   31  A    between atoms: _69  and  _70
REMARK   32  A    between atoms: _73  and  _75
REMARK   33  A    between atoms: _75  and  _76
REMARK   34  A    between atoms: _79  and  _81
REMARK   35  A    between atoms: _81  and  _82
REMARK   36  A    between atoms: _81  and  _84
REMARK   37  A    between atoms: _84  and  _85
REMARK   38  A    between atoms: _85  and  _86
REMARK   39  A    between atoms: _88  and  _90
REMARK   40  A    between atoms: _90  and  _91
REMARK   41  A    between atoms: _90  and  _93
REMARK   42  A    between atoms: _93  and  _94
REMARK   43  A    between atoms: _97  and  _99
REMARK   44  A    between atoms: _99  and  _100
REMARK   45  A    between atoms: _99  and  _102
REMARK   46  A    between atoms: _102  and  _103
REMARK   47  A    between atoms: _106  and  _108
REMARK   48  A    between atoms: _108  and  _109
REMARK   49  A    between atoms: _108  and  _111
REMARK   50  A    between atoms: _111  and  _112
REMARK   51  A    between atoms: _122  and  _124
REMARK   52  A    between atoms: _124  and  _125
REMARK   53  A    between atoms: _124  and  _127
REMARK   54  A    between atoms: _127  and  _128
REMARK   55  A    between atoms: _128  and  _129
REMARK   56  A    between atoms: _131  and  _133
REMARK   57  A    between atoms: _133  and  _134
REMARK   58  A    between atoms: _133  and  _136
REMARK   59  A    between atoms: _136  and  _137
REMARK   60  A    between atoms: _140  and  _142
REMARK   61  A    between atoms: _142  and  _143
REMARK   62  A    between atoms: _142  and  _145
REMARK   63  A    between atoms: _145  and  _146
REMARK   64  A    between atoms: _149  and  _151
REMARK   65  A    between atoms: _151  and  _152
REMARK   66  A    between atoms: _151  and  _154
REMARK   67  A    between atoms: _154  and  _155
REMARK   68  A    between atoms: _155  and  _156
REMARK   69  A    between atoms: _156  and  _157
REMARK   70  A    between atoms: _166  and  _168
REMARK   71  A    between atoms: _168  and  _169
REMARK   72  A    between atoms: _168  and  _171
REMARK   73  A    between atoms: _171  and  _172
REMARK   74  A    between atoms: _172  and  _173
REMARK   75  A    between atoms: _176  and  _178
REMARK   76  A    between atoms: _178  and  _179
REMARK   77  A    between atoms: _178  and  _181
REMARK   78  A    between atoms: _181  and  _182
REMARK   79  A    between atoms: _182  and  _183
REMARK   80  A    between atoms: _189  and  _190
REMARK   81  A    between atoms: _195  and  _197
REMARK   82  A    between atoms: _197  and  _198
REMARK   83  A    between atoms: _197  and  _200
REMARK   84  A    between atoms: _200  and  _201
REMARK   85  A    between atoms: _204  and  _206
REMARK   86  A    between atoms: _206  and  _207
REMARK   87  A    between atoms: _209  and  _211
REMARK   88  A    between atoms: _211  and  _212
REMARK   89  A    between atoms: _214  and  _216
REMARK   90  A    between atoms: _216  and  _217
REMARK   91  A    between atoms: _216  and  _219
REMARK   92  A    between atoms: _219  and  _220
REMARK   93  A    between atoms: _230  and  _232
REMARK   94  A    between atoms: _232  and  _233
REMARK   95  A    between atoms: _232  and  _235
REMARK   96  A    between atoms: _235  and  _236
REMARK   97  A    between atoms: _236  and  _237
REMARK   98  A    between atoms: _237  and  _238
REMARK   99  A    between atoms: _238  and  _239
REMARK  100  A    between atoms: _243  and  _245
REMARK  101  A    between atoms: _245  and  _246
REMARK  102  A    between atoms: _249  and  _251
REMARK  103  A    between atoms: _251  and  _252
REMARK  104  A    between atoms: _251  and  _254
REMARK  105  A    between atoms: _254  and  _255
REMARK  106  A    between atoms: _260  and  _262
REMARK  107  A    between atoms: _262  and  _263
REMARK  108  A    between atoms: _262  and  _265
REMARK  109  A    between atoms: _265  and  _266
REMARK  110  A    between atoms: _266  and  _267
REMARK  111  A    between atoms: _267  and  _268
REMARK  112  A    between atoms: _277  and  _279
REMARK  113  A    between atoms: _279  and  _280
REMARK  114  A    between atoms: _279  and  _282
REMARK  115  A    between atoms: _282  and  _283
REMARK  116  A    between atoms: _286  and  _288
REMARK  117  A    between atoms: _288  and  _289
REMARK  118  A    between atoms: _288  and  _291
REMARK  119  A    between atoms: _291  and  _292
REMARK  120  A    between atoms: _295  and  _297
REMARK  121  A    between atoms: _297  and  _298
REMARK  122  A    between atoms: _297  and  _300
REMARK  123  A    between atoms: _300  and  _301
REMARK  124  A    between atoms: _304  and  _306
REMARK  125  A    between atoms: _306  and  _307
REMARK  126  A    between atoms: _306  and  _309
REMARK  127  A    between atoms: _309  and  _310
REMARK  128  A    between atoms: _313  and  _315
REMARK  129  A    between atoms: _315  and  _316
REMARK  130  A    between atoms: _315  and  _318
REMARK  131  A    between atoms: _318  and  _319
REMARK  132  A    between atoms: _319  and  _320
REMARK  133  A    between atoms: _322  and  _324
REMARK  134  A    between atoms: _324  and  _325
REMARK  135  A    between atoms: _324  and  _327
REMARK  136  A    between atoms: _327  and  _328
REMARK  137  A    between atoms: _331  and  _333
REMARK  138  A    between atoms: _333  and  _334
REMARK  139  A    between atoms: _333  and  _336
REMARK  140  A    between atoms: _338  and  _340
REMARK  141  A    between atoms: _340  and  _341
REMARK  142  A    between atoms: _340  and  _343
REMARK  143  A    between atoms: _343  and  _344
REMARK  144  A    between atoms: _344  and  _345
REMARK  145  A    between atoms: _345  and  _346
REMARK  146  A    between atoms: _355  and  _357
REMARK  147  A    between atoms: _357  and  _358
REMARK  148  A    between atoms: _360  and  _362
REMARK  149  A    between atoms: _362  and  _363
REMARK  150  A    between atoms: _362  and  _365
REMARK  151  A    between atoms: _365  and  _366
REMARK                            x       y       z     vdW  Elec       q    Type
REMARK                         _______ _______ _______ _____ _____    ______ ____
ROOT
ATOM      1  O   HOH     1      87.244  -4.577  50.519  0.00  0.00    +0.000 OA
ENDROOT
TORSDOF 0
REMARK  Name = ../refined-set-2016/2bo4/2bo4_pocket.pdb
REMARK  151 active torsions:
REMARK  status: ('A' for Active; 'I' for Inactive)
REMARK    1  A    between atoms: _1  and  _3
REMARK    2  A    between atoms: _3  and  _4
REMARK    3  A    between atoms: _3  and  _6
REMARK    4  A    between atoms: _6  and  _7
REMARK    5  A    between atoms: _7  and  _8
REMARK    6  A    between atoms: _8  and  _9
REMARK    7  A    between atoms: _9  and  _10
REMARK    8  A    between atoms: _14  and  _16
REMARK    9  A    between atoms: _16  and  _17
REMARK   10  A    between atoms: _16  and  _19
REMARK   11  A    between atoms: _19  and  _20
REMARK   12  A    between atoms: _23  and  _25
REMARK   13  A    between atoms: _25  and  _26
REMARK   14  A    between atoms: _25  and  _28
REMARK   15  A    between atoms: _28  and  _29
REMARK   16  A    between atoms: _32  and  _34
REMARK   17  A    between atoms: _34  and  _35
REMARK   18  A    between atoms: _34  and  _37
REMARK   19  A    between atoms: _37  and  _38
REMARK   20  A    between atoms: _38  and  _39
REMARK   21  A    between atoms: _39  and  _40
REMARK   22  A    between atoms: _49  and  _51
REMARK   23  A    between atoms: _51  and  _52
REMARK   24  A    between atoms: _55  and  _57
REMARK   25  A    between atoms: _57  and  _58
REMARK   26  A    between atoms: _57  and  _60
REMARK   27  A    between atoms: _60  and  _61
REMARK   28  A    between atoms: _64  and  _66
REMARK   29  A    between atoms: _66  and  _67
REMARK   30  A    between atoms: _66  and  _69
REMARK   31  A    between atoms: _69  and  _70
REMARK   32  A    between atoms: _73  and  _75
REMARK   33  A    between atoms: _75  and  _76
REMARK   34  A    between atoms: _79  and  _81
REMARK   35  A    between atoms: _81  and  _82
REMARK   36  A    between atoms: _81  and  _84
REMARK   37  A    between atoms: _84  and  _85
REMARK   38  A    between atoms: _85  and  _86
REMARK   39  A    between atoms: _88  and  _90
REMARK   40  A    between atoms: _90  and  _91
REMARK   41  A    between atoms: _90  and  _93
REMARK   42  A    between atoms: _93  and  _94
REMARK   43  A    between atoms: _97  and  _99
REMARK   44  A    between atoms: _99  and  _100
REMARK   45  A    between atoms: _99  and  _102
REMARK   46  A    between atoms: _102  and  _103
REMARK   47  A    between atoms: _106  and  _108
REMARK   48  A    between atoms: _108  and  _109
REMARK   49  A    between atoms: _108  and  _111
REMARK   50  A    between atoms: _111  and  _112
REMARK   51  A    between atoms: _122  and  _124
REMARK   52  A    between atoms: _124  and  _125
REMARK   53  A    between atoms: _124  and  _127
REMARK   54  A    between atoms: _127  and  _128
REMARK   55  A    between atoms: _128  and  _129
REMARK   56  A    between atoms: _131  and  _133
REMARK   57  A    between atoms: _133  and  _134
REMARK   58  A    between atoms: _133  and  _136
REMARK   59  A    between atoms: _136  and  _137
REMARK   60  A    between atoms: _140  and  _142
REMARK   61  A    between atoms: _142  and  _143
REMARK   62  A    between atoms: _142  and  _145
REMARK   63  A    between atoms: _145  and  _146
REMARK   64  A    between atoms: _149  and  _151
REMARK   65  A    between atoms: _151  and  _152
REMARK   66  A    between atoms: _151  and  _154
REMARK   67  A    between atoms: _154  and  _155
REMARK   68  A    between atoms: _155  and  _156
REMARK   69  A    between atoms: _156  and  _157
REMARK   70  A    between atoms: _166  and  _168
REMARK   71  A    between atoms: _168  and  _169
REMARK   72  A    between atoms: _168  and  _171
REMARK   73  A    between atoms: _171  and  _172
REMARK   74  A    between atoms: _172  and  _173
REMARK   75  A    between atoms: _176  and  _178
REMARK   76  A    between atoms: _178  and  _179
REMARK   77  A    between atoms: _178  and  _181
REMARK   78  A    between atoms: _181  and  _182
REMARK   79  A    between atoms: _182  and  _183
REMARK   80  A    between atoms: _189  and  _190
REMARK   81  A    between atoms: _195  and  _197
REMARK   82  A    between atoms: _197  and  _198
REMARK   83  A    between atoms: _197  and  _200
REMARK   84  A    between atoms: _200  and  _201
REMARK   85  A    between atoms: _204  and  _206
REMARK   86  A    between atoms: _206  and  _207
REMARK   87  A    between atoms: _209  and  _211
REMARK   88  A    between atoms: _211  and  _212
REMARK   89  A    between atoms: _214  and  _216
REMARK   90  A    between atoms: _216  and  _217
REMARK   91  A    between atoms: _216  and  _219
REMARK   92  A    between atoms: _219  and  _220
REMARK   93  A    between atoms: _230  and  _232
REMARK   94  A    between atoms: _232  and  _233
REMARK   95  A    between atoms: _232  and  _235
REMARK   96  A    between atoms: _235  and  _236
REMARK   97  A    between atoms: _236  and  _237
REMARK   98  A    between atoms: _237  and  _238
REMARK   99  A    between atoms: _238  and  _239
REMARK  100  A    between atoms: _243  and  _245
REMARK  101  A    between atoms: _245  and  _246
REMARK  102  A    between atoms: _249  and  _251
REMARK  103  A    between atoms: _251  and  _252
REMARK  104  A    between atoms: _251  and  _254
REMARK  105  A    between atoms: _254  and  _255
REMARK  106  A    between atoms: _260  and  _262
REMARK  107  A    between atoms: _262  and  _263
REMARK  108  A    between atoms: _262  and  _265
REMARK  109  A    between atoms: _265  and  _266
REMARK  110  A    between atoms: _266  and  _267
REMARK  111  A    between atoms: _267  and  _268
REMARK  112  A    between atoms: _277  and  _279
REMARK  113  A    between atoms: _279  and  _280
REMARK  114  A    between atoms: _279  and  _282
REMARK  115  A    between atoms: _282  and  _283
REMARK  116  A    between atoms: _286  and  _288
REMARK  117  A    between atoms: _288  and  _289
REMARK  118  A    between atoms: _288  and  _291
REMARK  119  A    between atoms: _291  and  _292
REMARK  120  A    between atoms: _295  and  _297
REMARK  121  A    between atoms: _297  and  _298
REMARK  122  A    between atoms: _297  and  _300
REMARK  123  A    between atoms: _300  and  _301
REMARK  124  A    between atoms: _304  and  _306
REMARK  125  A    between atoms: _306  and  _307
REMARK  126  A    between atoms: _306  and  _309
REMARK  127  A    between atoms: _309  and  _310
REMARK  128  A    between atoms: _313  and  _315
REMARK  129  A    between atoms: _315  and  _316
REMARK  130  A    between atoms: _315  and  _318
REMARK  131  A    between atoms: _318  and  _319
REMARK  132  A    between atoms: _319  and  _320
REMARK  133  A    between atoms: _322  and  _324
REMARK  134  A    between atoms: _324  and  _325
REMARK  135  A    between atoms: _324  and  _327
REMARK  136  A    between atoms: _327  and  _328
REMARK  137  A    between atoms: _331  and  _333
REMARK  138  A    between atoms: _333  and  _334
REMARK  139  A    between atoms: _333  and  _336
REMARK  140  A    between atoms: _338  and  _340
REMARK  141  A    between atoms: _340  and  _341
REMARK  142  A    between atoms: _340  and  _343
REMARK  143  A    between atoms: _343  and  _344
REMARK  144  A    between atoms: _344  and  _345
REMARK  145  A    between atoms: _345  and  _346
REMARK  146  A    between atoms: _355  and  _357
REMARK  147  A    between atoms: _357  and  _358
REMARK  148  A    between atoms: _360  and  _362
REMARK  149  A    between atoms: _362  and  _363
REMARK  150  A    between atoms: _362  and  _365
REMARK  151  A    between atoms: _365  and  _366
REMARK                            x       y       z     vdW  Elec       q    Type
REMARK                         _______ _______ _______ _____ _____    ______ ____
ROOT
ATOM      1  O   HOH     1      93.529  -4.078  47.173  0.00  0.00    +0.000 OA
ENDROOT
TORSDOF 0
REMARK  Name = ../refined-set-2016/2bo4/2bo4_pocket.pdb
REMARK  151 active torsions:
REMARK  status: ('A' for Active; 'I' for Inactive)
REMARK    1  A    between atoms: _1  and  _3
REMARK    2  A    between atoms: _3  and  _4
REMARK    3  A    between atoms: _3  and  _6
REMARK    4  A    between atoms: _6  and  _7
REMARK    5  A    between atoms: _7  and  _8
REMARK    6  A    between atoms: _8  and  _9
REMARK    7  A    between atoms: _9  and  _10
REMARK    8  A    between atoms: _14  and  _16
REMARK    9  A    between atoms: _16  and  _17
REMARK   10  A    between atoms: _16  and  _19
REMARK   11  A    between atoms: _19  and  _20
REMARK   12  A    between atoms: _23  and  _25
REMARK   13  A    between atoms: _25  and  _26
REMARK   14  A    between atoms: _25  and  _28
REMARK   15  A    between atoms: _28  and  _29
REMARK   16  A    between atoms: _32  and  _34
REMARK   17  A    between atoms: _34  and  _35
REMARK   18  A    between atoms: _34  and  _37
REMARK   19  A    between atoms: _37  and  _38
REMARK   20  A    between atoms: _38  and  _39
REMARK   21  A    between atoms: _39  and  _40
REMARK   22  A    between atoms: _49  and  _51
REMARK   23  A    between atoms: _51  and  _52
REMARK   24  A    between atoms: _55  and  _57
REMARK   25  A    between atoms: _57  and  _58
REMARK   26  A    between atoms: _57  and  _60
REMARK   27  A    between atoms: _60  and  _61
REMARK   28  A    between atoms: _64  and  _66
REMARK   29  A    between atoms: _66  and  _67
REMARK   30  A    between atoms: _66  and  _69
REMARK   31  A    between atoms: _69  and  _70
REMARK   32  A    between atoms: _73  and  _75
REMARK   33  A    between atoms: _75  and  _76
REMARK   34  A    between atoms: _79  and  _81
REMARK   35  A    between atoms: _81  and  _82
REMARK   36  A    between atoms: _81  and  _84
REMARK   37  A    between atoms: _84  and  _85
REMARK   38  A    between atoms: _85  and  _86
REMARK   39  A    between atoms: _88  and  _90
REMARK   40  A    between atoms: _90  and  _91
REMARK   41  A    between atoms: _90  and  _93
REMARK   42  A    between atoms: _93  and  _94
REMARK   43  A    between atoms: _97  and  _99
REMARK   44  A    between atoms: _99  and  _100
REMARK   45  A    between atoms: _99  and  _102
REMARK   46  A    between atoms: _102  and  _103
REMARK   47  A    between atoms: _106  and  _108
REMARK   48  A    between atoms: _108  and  _109
REMARK   49  A    between atoms: _108  and  _111
REMARK   50  A    between atoms: _111  and  _112
REMARK   51  A    between atoms: _122  and  _124
REMARK   52  A    between atoms: _124  and  _125
REMARK   53  A    between atoms: _124  and  _127
REMARK   54  A    between atoms: _127  and  _128
REMARK   55  A    between atoms: _128  and  _129
REMARK   56  A    between atoms: _131  and  _133
REMARK   57  A    between atoms: _133  and  _134
REMARK   58  A    between atoms: _133  and  _136
REMARK   59  A    between atoms: _136  and  _137
REMARK   60  A    between atoms: _140  and  _142
REMARK   61  A    between atoms: _142  and  _143
REMARK   62  A    between atoms: _142  and  _145
REMARK   63  A    between atoms: _145  and  _146
REMARK   64  A    between atoms: _149  and  _151
REMARK   65  A    between atoms: _151  and  _152
REMARK   66  A    between atoms: _151  and  _154
REMARK   67  A    between atoms: _154  and  _155
REMARK   68  A    between atoms: _155  and  _156
REMARK   69  A    between atoms: _156  and  _157
REMARK   70  A    between atoms: _166  and  _168
REMARK   71  A    between atoms: _168  and  _169
REMARK   72  A    between atoms: _168  and  _171
REMARK   73  A    between atoms: _171  and  _172
REMARK   74  A    between atoms: _172  and  _173
REMARK   75  A    between atoms: _176  and  _178
REMARK   76  A    between atoms: _178  and  _179
REMARK   77  A    between atoms: _178  and  _181
REMARK   78  A    between atoms: _181  and  _182
REMARK   79  A    between atoms: _182  and  _183
REMARK   80  A    between atoms: _189  and  _190
REMARK   81  A    between atoms: _195  and  _197
REMARK   82  A    between atoms: _197  and  _198
REMARK   83  A    between atoms: _197  and  _200
REMARK   84  A    between atoms: _200  and  _201
REMARK   85  A    between atoms: _204  and  _206
REMARK   86  A    between atoms: _206  and  _207
REMARK   87  A    between atoms: _209  and  _211
REMARK   88  A    between atoms: _211  and  _212
REMARK   89  A    between atoms: _214  and  _216
REMARK   90  A    between atoms: _216  and  _217
REMARK   91  A    between atoms: _216  and  _219
REMARK   92  A    between atoms: _219  and  _220
REMARK   93  A    between atoms: _230  and  _232
REMARK   94  A    between atoms: _232  and  _233
REMARK   95  A    between atoms: _232  and  _235
REMARK   96  A    between atoms: _235  and  _236
REMARK   97  A    between atoms: _236  and  _237
REMARK   98  A    between atoms: _237  and  _238
REMARK   99  A    between atoms: _238  and  _239
REMARK  100  A    between atoms: _243  and  _245
REMARK  101  A    between atoms: _245  and  _246
REMARK  102  A    between atoms: _249  and  _251
REMARK  103  A    between atoms: _251  and  _252
REMARK  104  A    between atoms: _251  and  _254
REMARK  105  A    between atoms: _254  and  _255
REMARK  106  A    between atoms: _260  and  _262
REMARK  107  A    between atoms: _262  and  _263
REMARK  108  A    between atoms: _262  and  _265
REMARK  109  A    between atoms: _265  and  _266
REMARK  110  A    between atoms: _266  and  _267
REMARK  111  A    between atoms: _267  and  _268
REMARK  112  A    between atoms: _277  and  _279
REMARK  113  A    between atoms: _279  and  _280
REMARK  114  A    between atoms: _279  and  _282
REMARK  115  A    between atoms: _282  and  _283
REMARK  116  A    between atoms: _286  and  _288
REMARK  117  A    between atoms: _288  and  _289
REMARK  118  A    between atoms: _288  and  _291
REMARK  119  A    between atoms: _291  and  _292
REMARK  120  A    between atoms: _295  and  _297
REMARK  121  A    between atoms: _297  and  _298
REMARK  122  A    between atoms: _297  and  _300
REMARK  123  A    between atoms: _300  and  _301
REMARK  124  A    between atoms: _304  and  _306
REMARK  125  A    between atoms: _306  and  _307
REMARK  126  A    between atoms: _306  and  _309
REMARK  127  A    between atoms: _309  and  _310
REMARK  128  A    between atoms: _313  and  _315
REMARK  129  A    between atoms: _315  and  _316
REMARK  130  A    between atoms: _315  and  _318
REMARK  131  A    between atoms: _318  and  _319
REMARK  132  A    between atoms: _319  and  _320
REMARK  133  A    between atoms: _322  and  _324
REMARK  134  A    between atoms: _324  and  _325
REMARK  135  A    between atoms: _324  and  _327
REMARK  136  A    between atoms: _327  and  _328
REMARK  137  A    between atoms: _331  and  _333
REMARK  138  A    between atoms: _333  and  _334
REMARK  139  A    between atoms: _333  and  _336
REMARK  140  A    between atoms: _338  and  _340
REMARK  141  A    between atoms: _340  and  _341
REMARK  142  A    between atoms: _340  and  _343
REMARK  143  A    between atoms: _343  and  _344
REMARK  144  A    between atoms: _344  and  _345
REMARK  145  A    between atoms: _345  and  _346
REMARK  146  A    between atoms: _355  and  _357
REMARK  147  A    between atoms: _357  and  _358
REMARK  148  A    between atoms: _360  and  _362
REMARK  149  A    between atoms: _362  and  _363
REMARK  150  A    between atoms: _362  and  _365
REMARK  151  A    between atoms: _365  and  _366
REMARK                            x       y       z     vdW  Elec       q    Type
REMARK                         _______ _______ _______ _____ _____    ______ ____
ROOT
ATOM      1  O   HOH     1      91.076  -0.971  49.212  0.00  0.00    +0.000 OA
ENDROOT
TORSDOF 0
REMARK  Name = ../refined-set-2016/2bo4/2bo4_pocket.pdb
REMARK  151 active torsions:
REMARK  status: ('A' for Active; 'I' for Inactive)
REMARK    1  A    between atoms: _1  and  _3
REMARK    2  A    between atoms: _3  and  _4
REMARK    3  A    between atoms: _3  and  _6
REMARK    4  A    between atoms: _6  and  _7
REMARK    5  A    between atoms: _7  and  _8
REMARK    6  A    between atoms: _8  and  _9
REMARK    7  A    between atoms: _9  and  _10
REMARK    8  A    between atoms: _14  and  _16
REMARK    9  A    between atoms: _16  and  _17
REMARK   10  A    between atoms: _16  and  _19
REMARK   11  A    between atoms: _19  and  _20
REMARK   12  A    between atoms: _23  and  _25
REMARK   13  A    between atoms: _25  and  _26
REMARK   14  A    between atoms: _25  and  _28
REMARK   15  A    between atoms: _28  and  _29
REMARK   16  A    between atoms: _32  and  _34
REMARK   17  A    between atoms: _34  and  _35
REMARK   18  A    between atoms: _34  and  _37
REMARK   19  A    between atoms: _37  and  _38
REMARK   20  A    between atoms: _38  and  _39
REMARK   21  A    between atoms: _39  and  _40
REMARK   22  A    between atoms: _49  and  _51
REMARK   23  A    between atoms: _51  and  _52
REMARK   24  A    between atoms: _55  and  _57
REMARK   25  A    between atoms: _57  and  _58
REMARK   26  A    between atoms: _57  and  _60
REMARK   27  A    between atoms: _60  and  _61
REMARK   28  A    between atoms: _64  and  _66
REMARK   29  A    between atoms: _66  and  _67
REMARK   30  A    between atoms: _66  and  _69
REMARK   31  A    between atoms: _69  and  _70
REMARK   32  A    between atoms: _73  and  _75
REMARK   33  A    between atoms: _75  and  _76
REMARK   34  A    between atoms: _79  and  _81
REMARK   35  A    between atoms: _81  and  _82
REMARK   36  A    between atoms: _81  and  _84
REMARK   37  A    between atoms: _84  and  _85
REMARK   38  A    between atoms: _85  and  _86
REMARK   39  A    between atoms: _88  and  _90
REMARK   40  A    between atoms: _90  and  _91
REMARK   41  A    between atoms: _90  and  _93
REMARK   42  A    between atoms: _93  and  _94
REMARK   43  A    between atoms: _97  and  _99
REMARK   44  A    between atoms: _99  and  _100
REMARK   45  A    between atoms: _99  and  _102
REMARK   46  A    between atoms: _102  and  _103
REMARK   47  A    between atoms: _106  and  _108
REMARK   48  A    between atoms: _108  and  _109
REMARK   49  A    between atoms: _108  and  _111
REMARK   50  A    between atoms: _111  and  _112
REMARK   51  A    between atoms: _122  and  _124
REMARK   52  A    between atoms: _124  and  _125
REMARK   53  A    between atoms: _124  and  _127
REMARK   54  A    between atoms: _127  and  _128
REMARK   55  A    between atoms: _128  and  _129
REMARK   56  A    between atoms: _131  and  _133
REMARK   57  A    between atoms: _133  and  _134
REMARK   58  A    between atoms: _133  and  _136
REMARK   59  A    between atoms: _136  and  _137
REMARK   60  A    between atoms: _140  and  _142
REMARK   61  A    between atoms: _142  and  _143
REMARK   62  A    between atoms: _142  and  _145
REMARK   63  A    between atoms: _145  and  _146
REMARK   64  A    between atoms: _149  and  _151
REMARK   65  A    between atoms: _151  and  _152
REMARK   66  A    between atoms: _151  and  _154
REMARK   67  A    between atoms: _154  and  _155
REMARK   68  A    between atoms: _155  and  _156
REMARK   69  A    between atoms: _156  and  _157
REMARK   70  A    between atoms: _166  and  _168
REMARK   71  A    between atoms: _168  and  _169
REMARK   72  A    between atoms: _168  and  _171
REMARK   73  A    between atoms: _171  and  _172
REMARK   74  A    between atoms: _172  and  _173
REMARK   75  A    between atoms: _176  and  _178
REMARK   76  A    between atoms: _178  and  _179
REMARK   77  A    between atoms: _178  and  _181
REMARK   78  A    between atoms: _181  and  _182
REMARK   79  A    between atoms: _182  and  _183
REMARK   80  A    between atoms: _189  and  _190
REMARK   81  A    between atoms: _195  and  _197
REMARK   82  A    between atoms: _197  and  _198
REMARK   83  A    between atoms: _197  and  _200
REMARK   84  A    between atoms: _200  and  _201
REMARK   85  A    between atoms: _204  and  _206
REMARK   86  A    between atoms: _206  and  _207
REMARK   87  A    between atoms: _209  and  _211
REMARK   88  A    between atoms: _211  and  _212
REMARK   89  A    between atoms: _214  and  _216
REMARK   90  A    between atoms: _216  and  _217
REMARK   91  A    between atoms: _216  and  _219
REMARK   92  A    between atoms: _219  and  _220
REMARK   93  A    between atoms: _230  and  _232
REMARK   94  A    between atoms: _232  and  _233
REMARK   95  A    between atoms: _232  and  _235
REMARK   96  A    between atoms: _235  and  _236
REMARK   97  A    between atoms: _236  and  _237
REMARK   98  A    between atoms: _237  and  _238
REMARK   99  A    between atoms: _238  and  _239
REMARK  100  A    between atoms: _243  and  _245
REMARK  101  A    between atoms: _245  and  _246
REMARK  102  A    between atoms: _249  and  _251
REMARK  103  A    between atoms: _251  and  _252
REMARK  104  A    between atoms: _251  and  _254
REMARK  105  A    between atoms: _254  and  _255
REMARK  106  A    between atoms: _260  and  _262
REMARK  107  A    between atoms: _262  and  _263
REMARK  108  A    between atoms: _262  and  _265
REMARK  109  A    between atoms: _265  and  _266
REMARK  110  A    between atoms: _266  and  _267
REMARK  111  A    between atoms: _267  and  _268
REMARK  112  A    between atoms: _277  and  _279
REMARK  113  A    between atoms: _279  and  _280
REMARK  114  A    between atoms: _279  and  _282
REMARK  115  A    between atoms: _282  and  _283
REMARK  116  A    between atoms: _286  and  _288
REMARK  117  A    between atoms: _288  and  _289
REMARK  118  A    between atoms: _288  and  _291
REMARK  119  A    between atoms: _291  and  _292
REMARK  120  A    between atoms: _295  and  _297
REMARK  121  A    between atoms: _297  and  _298
REMARK  122  A    between atoms: _297  and  _300
REMARK  123  A    between atoms: _300  and  _301
REMARK  124  A    between atoms: _304  and  _306
REMARK  125  A    between atoms: _306  and  _307
REMARK  126  A    between atoms: _306  and  _309
REMARK  127  A    between atoms: _309  and  _310
REMARK  128  A    between atoms: _313  and  _315
REMARK  129  A    between atoms: _315  and  _316
REMARK  130  A    between atoms: _315  and  _318
REMARK  131  A    between atoms: _318  and  _319
REMARK  132  A    between atoms: _319  and  _320
REMARK  133  A    between atoms: _322  and  _324
REMARK  134  A    between atoms: _324  and  _325
REMARK  135  A    between atoms: _324  and  _327
REMARK  136  A    between atoms: _327  and  _328
REMARK  137  A    between atoms: _331  and  _333
REMARK  138  A    between atoms: _333  and  _334
REMARK  139  A    between atoms: _333  and  _336
REMARK  140  A    between atoms: _338  and  _340
REMARK  141  A    between atoms: _340  and  _341
REMARK  142  A    between atoms: _340  and  _343
REMARK  143  A    between atoms: _343  and  _344
REMARK  144  A    between atoms: _344  and  _345
REMARK  145  A    between atoms: _345  and  _346
REMARK  146  A    between atoms: _355  and  _357
REMARK  147  A    between atoms: _357  and  _358
REMARK  148  A    between atoms: _360  and  _362
REMARK  149  A    between atoms: _362  and  _363
REMARK  150  A    between atoms: _362  and  _365
REMARK  151  A    between atoms: _365  and  _366
REMARK                            x       y       z     vdW  Elec       q    Type
REMARK                         _______ _______ _______ _____ _____    ______ ____
ROOT
ATOM      1  O   HOH     1      92.656   3.696  42.385  0.00  0.00    +0.000 OA
ENDROOT
TORSDOF 0
REMARK  Name = ../refined-set-2016/2bo4/2bo4_pocket.pdb
REMARK  151 active torsions:
REMARK  status: ('A' for Active; 'I' for Inactive)
REMARK    1  A    between atoms: _1  and  _3
REMARK    2  A    between atoms: _3  and  _4
REMARK    3  A    between atoms: _3  and  _6
REMARK    4  A    between atoms: _6  and  _7
REMARK    5  A    between atoms: _7  and  _8
REMARK    6  A    between atoms: _8  and  _9
REMARK    7  A    between atoms: _9  and  _10
REMARK    8  A    between atoms: _14  and  _16
REMARK    9  A    between atoms: _16  and  _17
REMARK   10  A    between atoms: _16  and  _19
REMARK   11  A    between atoms: _19  and  _20
REMARK   12  A    between atoms: _23  and  _25
REMARK   13  A    between atoms: _25  and  _26
REMARK   14  A    between atoms: _25  and  _28
REMARK   15  A    between atoms: _28  and  _29
REMARK   16  A    between atoms: _32  and  _34
REMARK   17  A    between atoms: _34  and  _35
REMARK   18  A    between atoms: _34  and  _37
REMARK   19  A    between atoms: _37  and  _38
REMARK   20  A    between atoms: _38  and  _39
REMARK   21  A    between atoms: _39  and  _40
REMARK   22  A    between atoms: _49  and  _51
REMARK   23  A    between atoms: _51  and  _52
REMARK   24  A    between atoms: _55  and  _57
REMARK   25  A    between atoms: _57  and  _58
REMARK   26  A    between atoms: _57  and  _60
REMARK   27  A    between atoms: _60  and  _61
REMARK   28  A    between atoms: _64  and  _66
REMARK   29  A    between atoms: _66  and  _67
REMARK   30  A    between atoms: _66  and  _69
REMARK   31  A    between atoms: _69  and  _70
REMARK   32  A    between atoms: _73  and  _75
REMARK   33  A    between atoms: _75  and  _76
REMARK   34  A    between atoms: _79  and  _81
REMARK   35  A    between atoms: _81  and  _82
REMARK   36  A    between atoms: _81  and  _84
REMARK   37  A    between atoms: _84  and  _85
REMARK   38  A    between atoms: _85  and  _86
REMARK   39  A    between atoms: _88  and  _90
REMARK   40  A    between atoms: _90  and  _91
REMARK   41  A    between atoms: _90  and  _93
REMARK   42  A    between atoms: _93  and  _94
REMARK   43  A    between atoms: _97  and  _99
REMARK   44  A    between atoms: _99  and  _100
REMARK   45  A    between atoms: _99  and  _102
REMARK   46  A    between atoms: _102  and  _103
REMARK   47  A    between atoms: _106  and  _108
REMARK   48  A    between atoms: _108  and  _109
REMARK   49  A    between atoms: _108  and  _111
REMARK   50  A    between atoms: _111  and  _112
REMARK   51  A    between atoms: _122  and  _124
REMARK   52  A    between atoms: _124  and  _125
REMARK   53  A    between atoms: _124  and  _127
REMARK   54  A    between atoms: _127  and  _128
REMARK   55  A    between atoms: _128  and  _129
REMARK   56  A    between atoms: _131  and  _133
REMARK   57  A    between atoms: _133  and  _134
REMARK   58  A    between atoms: _133  and  _136
REMARK   59  A    between atoms: _136  and  _137
REMARK   60  A    between atoms: _140  and  _142
REMARK   61  A    between atoms: _142  and  _143
REMARK   62  A    between atoms: _142  and  _145
REMARK   63  A    between atoms: _145  and  _146
REMARK   64  A    between atoms: _149  and  _151
REMARK   65  A    between atoms: _151  and  _152
REMARK   66  A    between atoms: _151  and  _154
REMARK   67  A    between atoms: _154  and  _155
REMARK   68  A    between atoms: _155  and  _156
REMARK   69  A    between atoms: _156  and  _157
REMARK   70  A    between atoms: _166  and  _168
REMARK   71  A    between atoms: _168  and  _169
REMARK   72  A    between atoms: _168  and  _171
REMARK   73  A    between atoms: _171  and  _172
REMARK   74  A    between atoms: _172  and  _173
REMARK   75  A    between atoms: _176  and  _178
REMARK   76  A    between atoms: _178  and  _179
REMARK   77  A    between atoms: _178  and  _181
REMARK   78  A    between atoms: _181  and  _182
REMARK   79  A    between atoms: _182  and  _183
REMARK   80  A    between atoms: _189  and  _190
REMARK   81  A    between atoms: _195  and  _197
REMARK   82  A    between atoms: _197  and  _198
REMARK   83  A    between atoms: _197  and  _200
REMARK   84  A    between atoms: _200  and  _201
REMARK   85  A    between atoms: _204  and  _206
REMARK   86  A    between atoms: _206  and  _207
REMARK   87  A    between atoms: _209  and  _211
REMARK   88  A    between atoms: _211  and  _212
REMARK   89  A    between atoms: _214  and  _216
REMARK   90  A    between atoms: _216  and  _217
REMARK   91  A    between atoms: _216  and  _219
REMARK   92  A    between atoms: _219  and  _220
REMARK   93  A    between atoms: _230  and  _232
REMARK   94  A    between atoms: _232  and  _233
REMARK   95  A    between atoms: _232  and  _235
REMARK   96  A    between atoms: _235  and  _236
REMARK   97  A    between atoms: _236  and  _237
REMARK   98  A    between atoms: _237  and  _238
REMARK   99  A    between atoms: _238  and  _239
REMARK  100  A    between atoms: _243  and  _245
REMARK  101  A    between atoms: _245  and  _246
REMARK  102  A    between atoms: _249  and  _251
REMARK  103  A    between atoms: _251  and  _252
REMARK  104  A    between atoms: _251  and  _254
REMARK  105  A    between atoms: _254  and  _255
REMARK  106  A    between atoms: _260  and  _262
REMARK  107  A    between atoms: _262  and  _263
REMARK  108  A    between atoms: _262  and  _265
REMARK  109  A    between atoms: _265  and  _266
REMARK  110  A    between atoms: _266  and  _267
REMARK  111  A    between atoms: _267  and  _268
REMARK  112  A    between atoms: _277  and  _279
REMARK  113  A    between atoms: _279  and  _280
REMARK  114  A    between atoms: _279  and  _282
REMARK  115  A    between atoms: _282  and  _283
REMARK  116  A    between atoms: _286  and  _288
REMARK  117  A    between atoms: _288  and  _289
REMARK  118  A    between atoms: _288  and  _291
REMARK  119  A    between atoms: _291  and  _292
REMARK  120  A    between atoms: _295  and  _297
REMARK  121  A    between atoms: _297  and  _298
REMARK  122  A    between atoms: _297  and  _300
REMARK  123  A    between atoms: _300  and  _301
REMARK  124  A    between atoms: _304  and  _306
REMARK  125  A    between atoms: _306  and  _307
REMARK  126  A    between atoms: _306  and  _309
REMARK  127  A    between atoms: _309  and  _310
REMARK  128  A    between atoms: _313  and  _315
REMARK  129  A    between atoms: _315  and  _316
REMARK  130  A    between atoms: _315  and  _318
REMARK  131  A    between atoms: _318  and  _319
REMARK  132  A    between atoms: _319  and  _320
REMARK  133  A    between atoms: _322  and  _324
REMARK  134  A    between atoms: _324  and  _325
REMARK  135  A    between atoms: _324  and  _327
REMARK  136  A    between atoms: _327  and  _328
REMARK  137  A    between atoms: _331  and  _333
REMARK  138  A    between atoms: _333  and  _334
REMARK  139  A    between atoms: _333  and  _336
REMARK  140  A    between atoms: _338  and  _340
REMARK  141  A    between atoms: _340  and  _341
REMARK  142  A    between atoms: _340  and  _343
REMARK  143  A    between atoms: _343  and  _344
REMARK  144  A    between atoms: _344  and  _345
REMARK  145  A    between atoms: _345  and  _346
REMARK  146  A    between atoms: _355  and  _357
REMARK  147  A    between atoms: _357  and  _358
REMARK  148  A    between atoms: _360  and  _362
REMARK  149  A    between atoms: _362  and  _363
REMARK  150  A    between atoms: _362  and  _365
REMARK  151  A    between atoms: _365  and  _366
REMARK                            x       y       z     vdW  Elec       q    Type
REMARK                         _______ _______ _______ _____ _____    ______ ____
ROOT
ATOM      1  O   HOH     1      86.946  -1.951  50.696  0.00  0.00    +0.000 OA
ENDROOT
TORSDOF 0
REMARK  Name = ../refined-set-2016/2bo4/2bo4_pocket.pdb
REMARK  151 active torsions:
REMARK  status: ('A' for Active; 'I' for Inactive)
REMARK    1  A    between atoms: _1  and  _3
REMARK    2  A    between atoms: _3  and  _4
REMARK    3  A    between atoms: _3  and  _6
REMARK    4  A    between atoms: _6  and  _7
REMARK    5  A    between atoms: _7  and  _8
REMARK    6  A    between atoms: _8  and  _9
REMARK    7  A    between atoms: _9  and  _10
REMARK    8  A    between atoms: _14  and  _16
REMARK    9  A    between atoms: _16  and  _17
REMARK   10  A    between atoms: _16  and  _19
REMARK   11  A    between atoms: _19  and  _20
REMARK   12  A    between atoms: _23  and  _25
REMARK   13  A    between atoms: _25  and  _26
REMARK   14  A    between atoms: _25  and  _28
REMARK   15  A    between atoms: _28  and  _29
REMARK   16  A    between atoms: _32  and  _34
REMARK   17  A    between atoms: _34  and  _35
REMARK   18  A    between atoms: _34  and  _37
REMARK   19  A    between atoms: _37  and  _38
REMARK   20  A    between atoms: _38  and  _39
REMARK   21  A    between atoms: _39  and  _40
REMARK   22  A    between atoms: _49  and  _51
REMARK   23  A    between atoms: _51  and  _52
REMARK   24  A    between atoms: _55  and  _57
REMARK   25  A    between atoms: _57  and  _58
REMARK   26  A    between atoms: _57  and  _60
REMARK   27  A    between atoms: _60  and  _61
REMARK   28  A    between atoms: _64  and  _66
REMARK   29  A    between atoms: _66  and  _67
REMARK   30  A    between atoms: _66  and  _69
REMARK   31  A    between atoms: _69  and  _70
REMARK   32  A    between atoms: _73  and  _75
REMARK   33  A    between atoms: _75  and  _76
REMARK   34  A    between atoms: _79  and  _81
REMARK   35  A    between atoms: _81  and  _82
REMARK   36  A    between atoms: _81  and  _84
REMARK   37  A    between atoms: _84  and  _85
REMARK   38  A    between atoms: _85  and  _86
REMARK   39  A    between atoms: _88  and  _90
REMARK   40  A    between atoms: _90  and  _91
REMARK   41  A    between atoms: _90  and  _93
REMARK   42  A    between atoms: _93  and  _94
REMARK   43  A    between atoms: _97  and  _99
REMARK   44  A    between atoms: _99  and  _100
REMARK   45  A    between atoms: _99  and  _102
REMARK   46  A    between atoms: _102  and  _103
REMARK   47  A    between atoms: _106  and  _108
REMARK   48  A    between atoms: _108  and  _109
REMARK   49  A    between atoms: _108  and  _111
REMARK   50  A    between atoms: _111  and  _112
REMARK   51  A    between atoms: _122  and  _124
REMARK   52  A    between atoms: _124  and  _125
REMARK   53  A    between atoms: _124  and  _127
REMARK   54  A    between atoms: _127  and  _128
REMARK   55  A    between atoms: _128  and  _129
REMARK   56  A    between atoms: _131  and  _133
REMARK   57  A    between atoms: _133  and  _134
REMARK   58  A    between atoms: _133  and  _136
REMARK   59  A    between atoms: _136  and  _137
REMARK   60  A    between atoms: _140  and  _142
REMARK   61  A    between atoms: _142  and  _143
REMARK   62  A    between atoms: _142  and  _145
REMARK   63  A    between atoms: _145  and  _146
REMARK   64  A    between atoms: _149  and  _151
REMARK   65  A    between atoms: _151  and  _152
REMARK   66  A    between atoms: _151  and  _154
REMARK   67  A    between atoms: _154  and  _155
REMARK   68  A    between atoms: _155  and  _156
REMARK   69  A    between atoms: _156  and  _157
REMARK   70  A    between atoms: _166  and  _168
REMARK   71  A    between atoms: _168  and  _169
REMARK   72  A    between atoms: _168  and  _171
REMARK   73  A    between atoms: _171  and  _172
REMARK   74  A    between atoms: _172  and  _173
REMARK   75  A    between atoms: _176  and  _178
REMARK   76  A    between atoms: _178  and  _179
REMARK   77  A    between atoms: _178  and  _181
REMARK   78  A    between atoms: _181  and  _182
REMARK   79  A    between atoms: _182  and  _183
REMARK   80  A    between atoms: _189  and  _190
REMARK   81  A    between atoms: _195  and  _197
REMARK   82  A    between atoms: _197  and  _198
REMARK   83  A    between atoms: _197  and  _200
REMARK   84  A    between atoms: _200  and  _201
REMARK   85  A    between atoms: _204  and  _206
REMARK   86  A    between atoms: _206  and  _207
REMARK   87  A    between atoms: _209  and  _211
REMARK   88  A    between atoms: _211  and  _212
REMARK   89  A    between atoms: _214  and  _216
REMARK   90  A    between atoms: _216  and  _217
REMARK   91  A    between atoms: _216  and  _219
REMARK   92  A    between atoms: _219  and  _220
REMARK   93  A    between atoms: _230  and  _232
REMARK   94  A    between atoms: _232  and  _233
REMARK   95  A    between atoms: _232  and  _235
REMARK   96  A    between atoms: _235  and  _236
REMARK   97  A    between atoms: _236  and  _237
REMARK   98  A    between atoms: _237  and  _238
REMARK   99  A    between atoms: _238  and  _239
REMARK  100  A    between atoms: _243  and  _245
REMARK  101  A    between atoms: _245  and  _246
REMARK  102  A    between atoms: _249  and  _251
REMARK  103  A    between atoms: _251  and  _252
REMARK  104  A    between atoms: _251  and  _254
REMARK  105  A    between atoms: _254  and  _255
REMARK  106  A    between atoms: _260  and  _262
REMARK  107  A    between atoms: _262  and  _263
REMARK  108  A    between atoms: _262  and  _265
REMARK  109  A    between atoms: _265  and  _266
REMARK  110  A    between atoms: _266  and  _267
REMARK  111  A    between atoms: _267  and  _268
REMARK  112  A    between atoms: _277  and  _279
REMARK  113  A    between atoms: _279  and  _280
REMARK  114  A    between atoms: _279  and  _282
REMARK  115  A    between atoms: _282  and  _283
REMARK  116  A    between atoms: _286  and  _288
REMARK  117  A    between atoms: _288  and  _289
REMARK  118  A    between atoms: _288  and  _291
REMARK  119  A    between atoms: _291  and  _292
REMARK  120  A    between atoms: _295  and  _297
REMARK  121  A    between atoms: _297  and  _298
REMARK  122  A    between atoms: _297  and  _300
REMARK  123  A    between atoms: _300  and  _301
REMARK  124  A    between atoms: _304  and  _306
REMARK  125  A    between atoms: _306  and  _307
REMARK  126  A    between atoms: _306  and  _309
REMARK  127  A    between atoms: _309  and  _310
REMARK  128  A    between atoms: _313  and  _315
REMARK  129  A    between atoms: _315  and  _316
REMARK  130  A    between atoms: _315  and  _318
REMARK  131  A    between atoms: _318  and  _319
REMARK  132  A    between atoms: _319  and  _320
REMARK  133  A    between atoms: _322  and  _324
REMARK  134  A    between atoms: _324  and  _325
REMARK  135  A    between atoms: _324  and  _327
REMARK  136  A    between atoms: _327  and  _328
REMARK  137  A    between atoms: _331  and  _333
REMARK  138  A    between atoms: _333  and  _334
REMARK  139  A    between atoms: _333  and  _336
REMARK  140  A    between atoms: _338  and  _340
REMARK  141  A    between atoms: _340  and  _341
REMARK  142  A    between atoms: _340  and  _343
REMARK  143  A    between atoms: _343  and  _344
REMARK  144  A    between atoms: _344  and  _345
REMARK  145  A    between atoms: _345  and  _346
REMARK  146  A    between atoms: _355  and  _357
REMARK  147  A    between atoms: _357  and  _358
REMARK  148  A    between atoms: _360  and  _362
REMARK  149  A    between atoms: _362  and  _363
REMARK  150  A    between atoms: _362  and  _365
REMARK  151  A    between atoms: _365  and  _366
REMARK                            x       y       z     vdW  Elec       q    Type
REMARK                         _______ _______ _______ _____ _____    ______ ____
ROOT
ATOM      1  O   HOH     1      86.427  -3.728  37.465  0.00  0.00    +0.000 OA
ENDROOT
TORSDOF 0
REMARK  Name = ../refined-set-2016/2bo4/2bo4_pocket.pdb
REMARK  151 active torsions:
REMARK  status: ('A' for Active; 'I' for Inactive)
REMARK    1  A    between atoms: _1  and  _3
REMARK    2  A    between atoms: _3  and  _4
REMARK    3  A    between atoms: _3  and  _6
REMARK    4  A    between atoms: _6  and  _7
REMARK    5  A    between atoms: _7  and  _8
REMARK    6  A    between atoms: _8  and  _9
REMARK    7  A    between atoms: _9  and  _10
REMARK    8  A    between atoms: _14  and  _16
REMARK    9  A    between atoms: _16  and  _17
REMARK   10  A    between atoms: _16  and  _19
REMARK   11  A    between atoms: _19  and  _20
REMARK   12  A    between atoms: _23  and  _25
REMARK   13  A    between atoms: _25  and  _26
REMARK   14  A    between atoms: _25  and  _28
REMARK   15  A    between atoms: _28  and  _29
REMARK   16  A    between atoms: _32  and  _34
REMARK   17  A    between atoms: _34  and  _35
REMARK   18  A    between atoms: _34  and  _37
REMARK   19  A    between atoms: _37  and  _38
REMARK   20  A    between atoms: _38  and  _39
REMARK   21  A    between atoms: _39  and  _40
REMARK   22  A    between atoms: _49  and  _51
REMARK   23  A    between atoms: _51  and  _52
REMARK   24  A    between atoms: _55  and  _57
REMARK   25  A    between atoms: _57  and  _58
REMARK   26  A    between atoms: _57  and  _60
REMARK   27  A    between atoms: _60  and  _61
REMARK   28  A    between atoms: _64  and  _66
REMARK   29  A    between atoms: _66  and  _67
REMARK   30  A    between atoms: _66  and  _69
REMARK   31  A    between atoms: _69  and  _70
REMARK   32  A    between atoms: _73  and  _75
REMARK   33  A    between atoms: _75  and  _76
REMARK   34  A    between atoms: _79  and  _81
REMARK   35  A    between atoms: _81  and  _82
REMARK   36  A    between atoms: _81  and  _84
REMARK   37  A    between atoms: _84  and  _85
REMARK   38  A    between atoms: _85  and  _86
REMARK   39  A    between atoms: _88  and  _90
REMARK   40  A    between atoms: _90  and  _91
REMARK   41  A    between atoms: _90  and  _93
REMARK   42  A    between atoms: _93  and  _94
REMARK   43  A    between atoms: _97  and  _99
REMARK   44  A    between atoms: _99  and  _100
REMARK   45  A    between atoms: _99  and  _102
REMARK   46  A    between atoms: _102  and  _103
REMARK   47  A    between atoms: _106  and  _108
REMARK   48  A    between atoms: _108  and  _109
REMARK   49  A    between atoms: _108  and  _111
REMARK   50  A    between atoms: _111  and  _112
REMARK   51  A    between atoms: _122  and  _124
REMARK   52  A    between atoms: _124  and  _125
REMARK   53  A    between atoms: _124  and  _127
REMARK   54  A    between atoms: _127  and  _128
REMARK   55  A    between atoms: _128  and  _129
REMARK   56  A    between atoms: _131  and  _133
REMARK   57  A    between atoms: _133  and  _134
REMARK   58  A    between atoms: _133  and  _136
REMARK   59  A    between atoms: _136  and  _137
REMARK   60  A    between atoms: _140  and  _142
REMARK   61  A    between atoms: _142  and  _143
REMARK   62  A    between atoms: _142  and  _145
REMARK   63  A    between atoms: _145  and  _146
REMARK   64  A    between atoms: _149  and  _151
REMARK   65  A    between atoms: _151  and  _152
REMARK   66  A    between atoms: _151  and  _154
REMARK   67  A    between atoms: _154  and  _155
REMARK   68  A    between atoms: _155  and  _156
REMARK   69  A    between atoms: _156  and  _157
REMARK   70  A    between atoms: _166  and  _168
REMARK   71  A    between atoms: _168  and  _169
REMARK   72  A    between atoms: _168  and  _171
REMARK   73  A    between atoms: _171  and  _172
REMARK   74  A    between atoms: _172  and  _173
REMARK   75  A    between atoms: _176  and  _178
REMARK   76  A    between atoms: _178  and  _179
REMARK   77  A    between atoms: _178  and  _181
REMARK   78  A    between atoms: _181  and  _182
REMARK   79  A    between atoms: _182  and  _183
REMARK   80  A    between atoms: _189  and  _190
REMARK   81  A    between atoms: _195  and  _197
REMARK   82  A    between atoms: _197  and  _198
REMARK   83  A    between atoms: _197  and  _200
REMARK   84  A    between atoms: _200  and  _201
REMARK   85  A    between atoms: _204  and  _206
REMARK   86  A    between atoms: _206  and  _207
REMARK   87  A    between atoms: _209  and  _211
REMARK   88  A    between atoms: _211  and  _212
REMARK   89  A    between atoms: _214  and  _216
REMARK   90  A    between atoms: _216  and  _217
REMARK   91  A    between atoms: _216  and  _219
REMARK   92  A    between atoms: _219  and  _220
REMARK   93  A    between atoms: _230  and  _232
REMARK   94  A    between atoms: _232  and  _233
REMARK   95  A    between atoms: _232  and  _235
REMARK   96  A    between atoms: _235  and  _236
REMARK   97  A    between atoms: _236  and  _237
REMARK   98  A    between atoms: _237  and  _238
REMARK   99  A    between atoms: _238  and  _239
REMARK  100  A    between atoms: _243  and  _245
REMARK  101  A    between atoms: _245  and  _246
REMARK  102  A    between atoms: _249  and  _251
REMARK  103  A    between atoms: _251  and  _252
REMARK  104  A    between atoms: _251  and  _254
REMARK  105  A    between atoms: _254  and  _255
REMARK  106  A    between atoms: _260  and  _262
REMARK  107  A    between atoms: _262  and  _263
REMARK  108  A    between atoms: _262  and  _265
REMARK  109  A    between atoms: _265  and  _266
REMARK  110  A    between atoms: _266  and  _267
REMARK  111  A    between atoms: _267  and  _268
REMARK  112  A    between atoms: _277  and  _279
REMARK  113  A    between atoms: _279  and  _280
REMARK  114  A    between atoms: _279  and  _282
REMARK  115  A    between atoms: _282  and  _283
REMARK  116  A    between atoms: _286  and  _288
REMARK  117  A    between atoms: _288  and  _289
REMARK  118  A    between atoms: _288  and  _291
REMARK  119  A    between atoms: _291  and  _292
REMARK  120  A    between atoms: _295  and  _297
REMARK  121  A    between atoms: _297  and  _298
REMARK  122  A    between atoms: _297  and  _300
REMARK  123  A    between atoms: _300  and  _301
REMARK  124  A    between atoms: _304  and  _306
REMARK  125  A    between atoms: _306  and  _307
REMARK  126  A    between atoms: _306  and  _309
REMARK  127  A    between atoms: _309  and  _310
REMARK  128  A    between atoms: _313  and  _315
REMARK  129  A    between atoms: _315  and  _316
REMARK  130  A    between atoms: _315  and  _318
REMARK  131  A    between atoms: _318  and  _319
REMARK  132  A    between atoms: _319  and  _320
REMARK  133  A    between atoms: _322  and  _324
REMARK  134  A    between atoms: _324  and  _325
REMARK  135  A    between atoms: _324  and  _327
REMARK  136  A    between atoms: _327  and  _328
REMARK  137  A    between atoms: _331  and  _333
REMARK  138  A    between atoms: _333  and  _334
REMARK  139  A    between atoms: _333  and  _336
REMARK  140  A    between atoms: _338  and  _340
REMARK  141  A    between atoms: _340  and  _341
REMARK  142  A    between atoms: _340  and  _343
REMARK  143  A    between atoms: _343  and  _344
REMARK  144  A    between atoms: _344  and  _345
REMARK  145  A    between atoms: _345  and  _346
REMARK  146  A    between atoms: _355  and  _357
REMARK  147  A    between atoms: _357  and  _358
REMARK  148  A    between atoms: _360  and  _362
REMARK  149  A    between atoms: _362  and  _363
REMARK  150  A    between atoms: _362  and  _365
REMARK  151  A    between atoms: _365  and  _366
REMARK                            x       y       z     vdW  Elec       q    Type
REMARK                         _______ _______ _______ _____ _____    ______ ____
ROOT
ATOM      1  O   HOH     1      85.772  -5.451  39.949  0.00  0.00    +0.000 OA
ENDROOT
TORSDOF 0
REMARK  Name = ../refined-set-2016/2bo4/2bo4_pocket.pdb
REMARK  151 active torsions:
REMARK  status: ('A' for Active; 'I' for Inactive)
REMARK    1  A    between atoms: _1  and  _3
REMARK    2  A    between atoms: _3  and  _4
REMARK    3  A    between atoms: _3  and  _6
REMARK    4  A    between atoms: _6  and  _7
REMARK    5  A    between atoms: _7  and  _8
REMARK    6  A    between atoms: _8  and  _9
REMARK    7  A    between atoms: _9  and  _10
REMARK    8  A    between atoms: _14  and  _16
REMARK    9  A    between atoms: _16  and  _17
REMARK   10  A    between atoms: _16  and  _19
REMARK   11  A    between atoms: _19  and  _20
REMARK   12  A    between atoms: _23  and  _25
REMARK   13  A    between atoms: _25  and  _26
REMARK   14  A    between atoms: _25  and  _28
REMARK   15  A    between atoms: _28  and  _29
REMARK   16  A    between atoms: _32  and  _34
REMARK   17  A    between atoms: _34  and  _35
REMARK   18  A    between atoms: _34  and  _37
REMARK   19  A    between atoms: _37  and  _38
REMARK   20  A    between atoms: _38  and  _39
REMARK   21  A    between atoms: _39  and  _40
REMARK   22  A    between atoms: _49  and  _51
REMARK   23  A    between atoms: _51  and  _52
REMARK   24  A    between atoms: _55  and  _57
REMARK   25  A    between atoms: _57  and  _58
REMARK   26  A    between atoms: _57  and  _60
REMARK   27  A    between atoms: _60  and  _61
REMARK   28  A    between atoms: _64  and  _66
REMARK   29  A    between atoms: _66  and  _67
REMARK   30  A    between atoms: _66  and  _69
REMARK   31  A    between atoms: _69  and  _70
REMARK   32  A    between atoms: _73  and  _75
REMARK   33  A    between atoms: _75  and  _76
REMARK   34  A    between atoms: _79  and  _81
REMARK   35  A    between atoms: _81  and  _82
REMARK   36  A    between atoms: _81  and  _84
REMARK   37  A    between atoms: _84  and  _85
REMARK   38  A    between atoms: _85  and  _86
REMARK   39  A    between atoms: _88  and  _90
REMARK   40  A    between atoms: _90  and  _91
REMARK   41  A    between atoms: _90  and  _93
REMARK   42  A    between atoms: _93  and  _94
REMARK   43  A    between atoms: _97  and  _99
REMARK   44  A    between atoms: _99  and  _100
REMARK   45  A    between atoms: _99  and  _102
REMARK   46  A    between atoms: _102  and  _103
REMARK   47  A    between atoms: _106  and  _108
REMARK   48  A    between atoms: _108  and  _109
REMARK   49  A    between atoms: _108  and  _111
REMARK   50  A    between atoms: _111  and  _112
REMARK   51  A    between atoms: _122  and  _124
REMARK   52  A    between atoms: _124  and  _125
REMARK   53  A    between atoms: _124  and  _127
REMARK   54  A    between atoms: _127  and  _128
REMARK   55  A    between atoms: _128  and  _129
REMARK   56  A    between atoms: _131  and  _133
REMARK   57  A    between atoms: _133  and  _134
REMARK   58  A    between atoms: _133  and  _136
REMARK   59  A    between atoms: _136  and  _137
REMARK   60  A    between atoms: _140  and  _142
REMARK   61  A    between atoms: _142  and  _143
REMARK   62  A    between atoms: _142  and  _145
REMARK   63  A    between atoms: _145  and  _146
REMARK   64  A    between atoms: _149  and  _151
REMARK   65  A    between atoms: _151  and  _152
REMARK   66  A    between atoms: _151  and  _154
REMARK   67  A    between atoms: _154  and  _155
REMARK   68  A    between atoms: _155  and  _156
REMARK   69  A    between atoms: _156  and  _157
REMARK   70  A    between atoms: _166  and  _168
REMARK   71  A    between atoms: _168  and  _169
REMARK   72  A    between atoms: _168  and  _171
REMARK   73  A    between atoms: _171  and  _172
REMARK   74  A    between atoms: _172  and  _173
REMARK   75  A    between atoms: _176  and  _178
REMARK   76  A    between atoms: _178  and  _179
REMARK   77  A    between atoms: _178  and  _181
REMARK   78  A    between atoms: _181  and  _182
REMARK   79  A    between atoms: _182  and  _183
REMARK   80  A    between atoms: _189  and  _190
REMARK   81  A    between atoms: _195  and  _197
REMARK   82  A    between atoms: _197  and  _198
REMARK   83  A    between atoms: _197  and  _200
REMARK   84  A    between atoms: _200  and  _201
REMARK   85  A    between atoms: _204  and  _206
REMARK   86  A    between atoms: _206  and  _207
REMARK   87  A    between atoms: _209  and  _211
REMARK   88  A    between atoms: _211  and  _212
REMARK   89  A    between atoms: _214  and  _216
REMARK   90  A    between atoms: _216  and  _217
REMARK   91  A    between atoms: _216  and  _219
REMARK   92  A    between atoms: _219  and  _220
REMARK   93  A    between atoms: _230  and  _232
REMARK   94  A    between atoms: _232  and  _233
REMARK   95  A    between atoms: _232  and  _235
REMARK   96  A    between atoms: _235  and  _236
REMARK   97  A    between atoms: _236  and  _237
REMARK   98  A    between atoms: _237  and  _238
REMARK   99  A    between atoms: _238  and  _239
REMARK  100  A    between atoms: _243  and  _245
REMARK  101  A    between atoms: _245  and  _246
REMARK  102  A    between atoms: _249  and  _251
REMARK  103  A    between atoms: _251  and  _252
REMARK  104  A    between atoms: _251  and  _254
REMARK  105  A    between atoms: _254  and  _255
REMARK  106  A    between atoms: _260  and  _262
REMARK  107  A    between atoms: _262  and  _263
REMARK  108  A    between atoms: _262  and  _265
REMARK  109  A    between atoms: _265  and  _266
REMARK  110  A    between atoms: _266  and  _267
REMARK  111  A    between atoms: _267  and  _268
REMARK  112  A    between atoms: _277  and  _279
REMARK  113  A    between atoms: _279  and  _280
REMARK  114  A    between atoms: _279  and  _282
REMARK  115  A    between atoms: _282  and  _283
REMARK  116  A    between atoms: _286  and  _288
REMARK  117  A    between atoms: _288  and  _289
REMARK  118  A    between atoms: _288  and  _291
REMARK  119  A    between atoms: _291  and  _292
REMARK  120  A    between atoms: _295  and  _297
REMARK  121  A    between atoms: _297  and  _298
REMARK  122  A    between atoms: _297  and  _300
REMARK  123  A    between atoms: _300  and  _301
REMARK  124  A    between atoms: _304  and  _306
REMARK  125  A    between atoms: _306  and  _307
REMARK  126  A    between atoms: _306  and  _309
REMARK  127  A    between atoms: _309  and  _310
REMARK  128  A    between atoms: _313  and  _315
REMARK  129  A    between atoms: _315  and  _316
REMARK  130  A    between atoms: _315  and  _318
REMARK  131  A    between atoms: _318  and  _319
REMARK  132  A    between atoms: _319  and  _320
REMARK  133  A    between atoms: _322  and  _324
REMARK  134  A    between atoms: _324  and  _325
REMARK  135  A    between atoms: _324  and  _327
REMARK  136  A    between atoms: _327  and  _328
REMARK  137  A    between atoms: _331  and  _333
REMARK  138  A    between atoms: _333  and  _334
REMARK  139  A    between atoms: _333  and  _336
REMARK  140  A    between atoms: _338  and  _340
REMARK  141  A    between atoms: _340  and  _341
REMARK  142  A    between atoms: _340  and  _343
REMARK  143  A    between atoms: _343  and  _344
REMARK  144  A    between atoms: _344  and  _345
REMARK  145  A    between atoms: _345  and  _346
REMARK  146  A    between atoms: _355  and  _357
REMARK  147  A    between atoms: _357  and  _358
REMARK  148  A    between atoms: _360  and  _362
REMARK  149  A    between atoms: _362  and  _363
REMARK  150  A    between atoms: _362  and  _365
REMARK  151  A    between atoms: _365  and  _366
REMARK                            x       y       z     vdW  Elec       q    Type
REMARK                         _______ _______ _______ _____ _____    ______ ____
ROOT
ATOM      1  O   HOH     1      86.246  -4.935  45.302  0.00  0.00    +0.000 OA
ENDROOT
TORSDOF 0
