REMARK  Name = ../refined-set-2016/1d7j/1d7j_pocket.pdb
REMARK  109 active torsions:
REMARK  status: ('A' for Active; 'I' for Inactive)
REMARK    1  A    between atoms: _1  and  _3
REMARK    2  A    between atoms: _3  and  _4
REMARK    3  A    between atoms: _3  and  _6
REMARK    4  A    between atoms: _9  and  _11
REMARK    5  A    between atoms: _11  and  _12
REMARK    6  A    between atoms: _11  and  _14
REMARK    7  A    between atoms: _14  and  _15
REMARK    8  A    between atoms: _20  and  _21
REMARK    9  A    between atoms: _23  and  _25
REMARK   10  A    between atoms: _25  and  _26
REMARK   11  A    between atoms: _25  and  _28
REMARK   12  A    between atoms: _28  and  _29
REMARK   13  A    between atoms: _32  and  _34
REMARK   14  A    between atoms: _34  and  _35
REMARK   15  A    between atoms: _37  and  _39
REMARK   16  A    between atoms: _39  and  _40
REMARK   17  A    between atoms: _39  and  _42
REMARK   18  A    between atoms: _42  and  _43
REMARK   19  A    between atoms: _49  and  _51
REMARK   20  A    between atoms: _51  and  _52
REMARK   21  A    between atoms: _51  and  _54
REMARK   22  A    between atoms: _54  and  _55
REMARK   23  A    between atoms: _58  and  _60
REMARK   24  A    between atoms: _60  and  _61
REMARK   25  A    between atoms: _60  and  _63
REMARK   26  A    between atoms: _63  and  _64
REMARK   27  A    between atoms: _66  and  _68
REMARK   28  A    between atoms: _68  and  _69
REMARK   29  A    between atoms: _68  and  _71
REMARK   30  A    between atoms: _71  and  _72
REMARK   31  A    between atoms: _74  and  _76
REMARK   32  A    between atoms: _76  and  _77
REMARK   33  A    between atoms: _76  and  _79
REMARK   34  A    between atoms: _79  and  _80
REMARK   35  A    between atoms: _80  and  _81
REMARK   36  A    between atoms: _81  and  _82
REMARK   37  A    between atoms: _91  and  _93
REMARK   38  A    between atoms: _93  and  _94
REMARK   39  A    between atoms: _93  and  _96
REMARK   40  A    between atoms: _96  and  _97
REMARK   41  A    between atoms: _103  and  _105
REMARK   42  A    between atoms: _105  and  _106
REMARK   43  A    between atoms: _105  and  _108
REMARK   44  A    between atoms: _108  and  _109
REMARK   45  A    between atoms: _115  and  _117
REMARK   46  A    between atoms: _117  and  _118
REMARK   47  A    between atoms: _117  and  _120
REMARK   48  A    between atoms: _120  and  _121
REMARK   49  A    between atoms: _121  and  _122
REMARK   50  A    between atoms: _127  and  _129
REMARK   51  A    between atoms: _129  and  _130
REMARK   52  A    between atoms: _129  and  _132
REMARK   53  A    between atoms: _132  and  _133
REMARK   54  A    between atoms: _133  and  _134
REMARK   55  A    between atoms: _137  and  _139
REMARK   56  A    between atoms: _139  and  _140
REMARK   57  A    between atoms: _139  and  _142
REMARK   58  A    between atoms: _145  and  _147
REMARK   59  A    between atoms: _147  and  _148
REMARK   60  A    between atoms: _147  and  _150
REMARK   61  A    between atoms: _150  and  _151
REMARK   62  A    between atoms: _154  and  _156
REMARK   63  A    between atoms: _156  and  _157
REMARK   64  A    between atoms: _156  and  _159
REMARK   65  A    between atoms: _159  and  _160
REMARK   66  A    between atoms: _160  and  _161
REMARK   67  A    between atoms: _161  and  _162
REMARK   68  A    between atoms: _171  and  _173
REMARK   69  A    between atoms: _173  and  _174
REMARK   70  A    between atoms: _176  and  _178
REMARK   71  A    between atoms: _178  and  _179
REMARK   72  A    between atoms: _178  and  _181
REMARK   73  A    between atoms: _181  and  _182
REMARK   74  A    between atoms: _192  and  _194
REMARK   75  A    between atoms: _194  and  _195
REMARK   76  A    between atoms: _194  and  _197
REMARK   77  A    between atoms: _197  and  _198
REMARK   78  A    between atoms: _198  and  _199
REMARK   79  A    between atoms: _202  and  _204
REMARK   80  A    between atoms: _204  and  _205
REMARK   81  A    between atoms: _204  and  _207
REMARK   82  A    between atoms: _207  and  _208
REMARK   83  A    between atoms: _211  and  _213
REMARK   84  A    between atoms: _213  and  _214
REMARK   85  A    between atoms: _213  and  _216
REMARK   86  A    between atoms: _216  and  _217
REMARK   87  A    between atoms: _222  and  _223
REMARK   88  A    between atoms: _225  and  _227
REMARK   89  A    between atoms: _227  and  _228
REMARK   90  A    between atoms: _231  and  _233
REMARK   91  A    between atoms: _233  and  _234
REMARK   92  A    between atoms: _233  and  _236
REMARK   93  A    between atoms: _236  and  _237
REMARK   94  A    between atoms: _242  and  _243
REMARK   95  A    between atoms: _245  and  _247
REMARK   96  A    between atoms: _247  and  _248
REMARK   97  A    between atoms: _247  and  _250
REMARK   98  A    between atoms: _250  and  _251
REMARK   99  A    between atoms: _254  and  _256
REMARK  100  A    between atoms: _256  and  _257
REMARK  101  A    between atoms: _256  and  _259
REMARK  102  A    between atoms: _259  and  _260
REMARK  103  A    between atoms: _263  and  _265
REMARK  104  A    between atoms: _265  and  _266
REMARK  105  A    between atoms: _265  and  _268
REMARK  106  A    between atoms: _268  and  _269
REMARK  107  A    between atoms: _275  and  _277
REMARK  108  A    between atoms: _277  and  _278
REMARK  109  A    between atoms: _277  and  _280
REMARK                            x       y       z     vdW  Elec       q    Type
REMARK                         _______ _______ _______ _____ _____    ______ ____
ROOT
ATOM      1  CA  VAL A   1      69.474   0.817  -0.926  0.00  0.00    +0.133 C 
ENDROOT
BRANCH   1   2
ATOM      2  CB  VAL A   1      69.060  -0.678  -1.150  0.00  0.00    +0.023 C 
ATOM      3  CG2 VAL A   1      69.906  -1.610  -0.293  0.00  0.00    +0.002 C 
ATOM      4  CG1 VAL A   1      67.584  -0.878  -0.807  0.00  0.00    +0.002 C 
ENDBRANCH   1   2
BRANCH   1   5
ATOM      5  N   VAL A   1      69.465   1.117   0.489  0.00  0.00    -0.239 NA
ATOM      6  H   VAL A   1      68.559   1.243   0.984  0.00  0.00    +0.142 HD
ENDBRANCH   1   5
BRANCH   1   7
ATOM      7  C   VAL A   1      68.523   1.667  -1.767  0.00  0.00    +0.224 C 
ATOM      8  O   VAL A   1      67.668   2.380  -1.247  0.00  0.00    -0.287 OA
ENDBRANCH   1   7
TORSDOF 3
REMARK  Name = ../refined-set-2016/1d7j/1d7j_pocket.pdb
REMARK  109 active torsions:
REMARK  status: ('A' for Active; 'I' for Inactive)
REMARK    1  A    between atoms: _1  and  _3
REMARK    2  A    between atoms: _3  and  _4
REMARK    3  A    between atoms: _3  and  _6
REMARK    4  A    between atoms: _9  and  _11
REMARK    5  A    between atoms: _11  and  _12
REMARK    6  A    between atoms: _11  and  _14
REMARK    7  A    between atoms: _14  and  _15
REMARK    8  A    between atoms: _20  and  _21
REMARK    9  A    between atoms: _23  and  _25
REMARK   10  A    between atoms: _25  and  _26
REMARK   11  A    between atoms: _25  and  _28
REMARK   12  A    between atoms: _28  and  _29
REMARK   13  A    between atoms: _32  and  _34
REMARK   14  A    between atoms: _34  and  _35
REMARK   15  A    between atoms: _37  and  _39
REMARK   16  A    between atoms: _39  and  _40
REMARK   17  A    between atoms: _39  and  _42
REMARK   18  A    between atoms: _42  and  _43
REMARK   19  A    between atoms: _49  and  _51
REMARK   20  A    between atoms: _51  and  _52
REMARK   21  A    between atoms: _51  and  _54
REMARK   22  A    between atoms: _54  and  _55
REMARK   23  A    between atoms: _58  and  _60
REMARK   24  A    between atoms: _60  and  _61
REMARK   25  A    between atoms: _60  and  _63
REMARK   26  A    between atoms: _63  and  _64
REMARK   27  A    between atoms: _66  and  _68
REMARK   28  A    between atoms: _68  and  _69
REMARK   29  A    between atoms: _68  and  _71
REMARK   30  A    between atoms: _71  and  _72
REMARK   31  A    between atoms: _74  and  _76
REMARK   32  A    between atoms: _76  and  _77
REMARK   33  A    between atoms: _76  and  _79
REMARK   34  A    between atoms: _79  and  _80
REMARK   35  A    between atoms: _80  and  _81
REMARK   36  A    between atoms: _81  and  _82
REMARK   37  A    between atoms: _91  and  _93
REMARK   38  A    between atoms: _93  and  _94
REMARK   39  A    between atoms: _93  and  _96
REMARK   40  A    between atoms: _96  and  _97
REMARK   41  A    between atoms: _103  and  _105
REMARK   42  A    between atoms: _105  and  _106
REMARK   43  A    between atoms: _105  and  _108
REMARK   44  A    between atoms: _108  and  _109
REMARK   45  A    between atoms: _115  and  _117
REMARK   46  A    between atoms: _117  and  _118
REMARK   47  A    between atoms: _117  and  _120
REMARK   48  A    between atoms: _120  and  _121
REMARK   49  A    between atoms: _121  and  _122
REMARK   50  A    between atoms: _127  and  _129
REMARK   51  A    between atoms: _129  and  _130
REMARK   52  A    between atoms: _129  and  _132
REMARK   53  A    between atoms: _132  and  _133
REMARK   54  A    between atoms: _133  and  _134
REMARK   55  A    between atoms: _137  and  _139
REMARK   56  A    between atoms: _139  and  _140
REMARK   57  A    between atoms: _139  and  _142
REMARK   58  A    between atoms: _145  and  _147
REMARK   59  A    between atoms: _147  and  _148
REMARK   60  A    between atoms: _147  and  _150
REMARK   61  A    between atoms: _150  and  _151
REMARK   62  A    between atoms: _154  and  _156
REMARK   63  A    between atoms: _156  and  _157
REMARK   64  A    between atoms: _156  and  _159
REMARK   65  A    between atoms: _159  and  _160
REMARK   66  A    between atoms: _160  and  _161
REMARK   67  A    between atoms: _161  and  _162
REMARK   68  A    between atoms: _171  and  _173
REMARK   69  A    between atoms: _173  and  _174
REMARK   70  A    between atoms: _176  and  _178
REMARK   71  A    between atoms: _178  and  _179
REMARK   72  A    between atoms: _178  and  _181
REMARK   73  A    between atoms: _181  and  _182
REMARK   74  A    between atoms: _192  and  _194
REMARK   75  A    between atoms: _194  and  _195
REMARK   76  A    between atoms: _194  and  _197
REMARK   77  A    between atoms: _197  and  _198
REMARK   78  A    between atoms: _198  and  _199
REMARK   79  A    between atoms: _202  and  _204
REMARK   80  A    between atoms: _204  and  _205
REMARK   81  A    between atoms: _204  and  _207
REMARK   82  A    between atoms: _207  and  _208
REMARK   83  A    between atoms: _211  and  _213
REMARK   84  A    between atoms: _213  and  _214
REMARK   85  A    between atoms: _213  and  _216
REMARK   86  A    between atoms: _216  and  _217
REMARK   87  A    between atoms: _222  and  _223
REMARK   88  A    between atoms: _225  and  _227
REMARK   89  A    between atoms: _227  and  _228
REMARK   90  A    between atoms: _231  and  _233
REMARK   91  A    between atoms: _233  and  _234
REMARK   92  A    between atoms: _233  and  _236
REMARK   93  A    between atoms: _236  and  _237
REMARK   94  A    between atoms: _242  and  _243
REMARK   95  A    between atoms: _245  and  _247
REMARK   96  A    between atoms: _247  and  _248
REMARK   97  A    between atoms: _247  and  _250
REMARK   98  A    between atoms: _250  and  _251
REMARK   99  A    between atoms: _254  and  _256
REMARK  100  A    between atoms: _256  and  _257
REMARK  101  A    between atoms: _256  and  _259
REMARK  102  A    between atoms: _259  and  _260
REMARK  103  A    between atoms: _263  and  _265
REMARK  104  A    between atoms: _265  and  _266
REMARK  105  A    between atoms: _265  and  _268
REMARK  106  A    between atoms: _268  and  _269
REMARK  107  A    between atoms: _275  and  _277
REMARK  108  A    between atoms: _277  and  _278
REMARK  109  A    between atoms: _277  and  _280
REMARK                            x       y       z     vdW  Elec       q    Type
REMARK                         _______ _______ _______ _____ _____    ______ ____
ROOT
ATOM      1  C   TYR A   1      64.539   0.301  -6.932  0.00  0.00    +0.239 C 
ATOM      2  O   TYR A   1      63.937   1.367  -6.765  0.00  0.00    -0.274 OA
ATOM      3  N   THR A   2      64.239  -0.599  -7.856  0.00  0.00    -0.295 N 
ATOM      4  H   THR A   2      64.831  -1.453  -7.910  0.00  0.00    +0.150 HD
ENDROOT
BRANCH   1   5
ATOM      5  CA  TYR A   1      65.672  -0.101  -6.020  0.00  0.00    +0.149 C 
BRANCH   5   6
ATOM      6  N   TYR A   1      66.147   1.045  -5.258  0.00  0.00    -0.238 NA
ATOM      7  H   TYR A   1      65.502   1.832  -5.041  0.00  0.00    +0.142 HD
ENDBRANCH   5   6
BRANCH   5   8
ATOM      8  CB  TYR A   1      65.147  -1.184  -5.056  0.00  0.00    +0.053 C 
BRANCH   8   9
ATOM      9  CG  TYR A   1      63.855  -0.796  -4.353  0.00  0.00    -0.020 A 
ATOM     10  CD2 TYR A   1      63.879  -0.137  -3.125  0.00  0.00    -0.001 A 
ATOM     11  CE2 TYR A   1      62.709   0.273  -2.503  0.00  0.00    +0.036 A 
ATOM     12  CZ  TYR A   1      61.485   0.022  -3.108  0.00  0.00    +0.134 A 
ATOM     13  CE1 TYR A   1      61.419  -0.635  -4.327  0.00  0.00    +0.036 A 
ATOM     14  CD1 TYR A   1      62.599  -1.044  -4.943  0.00  0.00    -0.001 A 
BRANCH  12  15
ATOM     15  OH  TYR A   1      60.340   0.427  -2.470  0.00  0.00    -0.506 OA
ATOM     16  HH  TYR A   1      59.553   0.181  -3.018  0.00  0.00    +0.292 HD
ENDBRANCH  12  15
ENDBRANCH   8   9
ENDBRANCH   5   8
ENDBRANCH   1   5
BRANCH   3  17
ATOM     17  CA  THR A   2      63.139  -0.477  -8.802  0.00  0.00    +0.176 C 
BRANCH  17  18
ATOM     18  C   THR A   2      62.596  -1.909  -8.926  0.00  0.00    +0.243 C 
ATOM     19  N   GLY A   3      61.314  -2.086  -8.638  0.00  0.00    -0.296 N 
ATOM     20  H   GLY A   3      60.732  -1.275  -8.347  0.00  0.00    +0.150 HD
ATOM     21  O   THR A   2      63.351  -2.854  -9.202  0.00  0.00    -0.273 OA
BRANCH  19  22
ATOM     22  CA  GLY A   3      60.722  -3.404  -8.727  0.00  0.00    +0.163 C 
BRANCH  22  23
ATOM     23  C   GLY A   3      59.901  -3.495  -9.990  0.00  0.00    +0.229 C 
ATOM     24  O   GLY A   3      59.172  -2.551 -10.332  0.00  0.00    -0.286 OA
ENDBRANCH  22  23
ENDBRANCH  19  22
ENDBRANCH  17  18
BRANCH  17  25
ATOM     25  CB  THR A   2      63.600  -0.008 -10.191  0.00  0.00    +0.137 C 
ATOM     26  CG2 THR A   2      62.403   0.132 -11.123  0.00  0.00    +0.034 C 
BRANCH  25  27
ATOM     27  OG1 THR A   2      64.266   1.253 -10.080  0.00  0.00    -0.382 OA
ATOM     28  HG1 THR A   2      63.643   1.921  -9.698  0.00  0.00    +0.210 HD
ENDBRANCH  25  27
ENDBRANCH  17  25
ENDBRANCH   3  17
TORSDOF 11
REMARK  Name = ../refined-set-2016/1d7j/1d7j_pocket.pdb
REMARK  109 active torsions:
REMARK  status: ('A' for Active; 'I' for Inactive)
REMARK    1  A    between atoms: _1  and  _3
REMARK    2  A    between atoms: _3  and  _4
REMARK    3  A    between atoms: _3  and  _6
REMARK    4  A    between atoms: _9  and  _11
REMARK    5  A    between atoms: _11  and  _12
REMARK    6  A    between atoms: _11  and  _14
REMARK    7  A    between atoms: _14  and  _15
REMARK    8  A    between atoms: _20  and  _21
REMARK    9  A    between atoms: _23  and  _25
REMARK   10  A    between atoms: _25  and  _26
REMARK   11  A    between atoms: _25  and  _28
REMARK   12  A    between atoms: _28  and  _29
REMARK   13  A    between atoms: _32  and  _34
REMARK   14  A    between atoms: _34  and  _35
REMARK   15  A    between atoms: _37  and  _39
REMARK   16  A    between atoms: _39  and  _40
REMARK   17  A    between atoms: _39  and  _42
REMARK   18  A    between atoms: _42  and  _43
REMARK   19  A    between atoms: _49  and  _51
REMARK   20  A    between atoms: _51  and  _52
REMARK   21  A    between atoms: _51  and  _54
REMARK   22  A    between atoms: _54  and  _55
REMARK   23  A    between atoms: _58  and  _60
REMARK   24  A    between atoms: _60  and  _61
REMARK   25  A    between atoms: _60  and  _63
REMARK   26  A    between atoms: _63  and  _64
REMARK   27  A    between atoms: _66  and  _68
REMARK   28  A    between atoms: _68  and  _69
REMARK   29  A    between atoms: _68  and  _71
REMARK   30  A    between atoms: _71  and  _72
REMARK   31  A    between atoms: _74  and  _76
REMARK   32  A    between atoms: _76  and  _77
REMARK   33  A    between atoms: _76  and  _79
REMARK   34  A    between atoms: _79  and  _80
REMARK   35  A    between atoms: _80  and  _81
REMARK   36  A    between atoms: _81  and  _82
REMARK   37  A    between atoms: _91  and  _93
REMARK   38  A    between atoms: _93  and  _94
REMARK   39  A    between atoms: _93  and  _96
REMARK   40  A    between atoms: _96  and  _97
REMARK   41  A    between atoms: _103  and  _105
REMARK   42  A    between atoms: _105  and  _106
REMARK   43  A    between atoms: _105  and  _108
REMARK   44  A    between atoms: _108  and  _109
REMARK   45  A    between atoms: _115  and  _117
REMARK   46  A    between atoms: _117  and  _118
REMARK   47  A    between atoms: _117  and  _120
REMARK   48  A    between atoms: _120  and  _121
REMARK   49  A    between atoms: _121  and  _122
REMARK   50  A    between atoms: _127  and  _129
REMARK   51  A    between atoms: _129  and  _130
REMARK   52  A    between atoms: _129  and  _132
REMARK   53  A    between atoms: _132  and  _133
REMARK   54  A    between atoms: _133  and  _134
REMARK   55  A    between atoms: _137  and  _139
REMARK   56  A    between atoms: _139  and  _140
REMARK   57  A    between atoms: _139  and  _142
REMARK   58  A    between atoms: _145  and  _147
REMARK   59  A    between atoms: _147  and  _148
REMARK   60  A    between atoms: _147  and  _150
REMARK   61  A    between atoms: _150  and  _151
REMARK   62  A    between atoms: _154  and  _156
REMARK   63  A    between atoms: _156  and  _157
REMARK   64  A    between atoms: _156  and  _159
REMARK   65  A    between atoms: _159  and  _160
REMARK   66  A    between atoms: _160  and  _161
REMARK   67  A    between atoms: _161  and  _162
REMARK   68  A    between atoms: _171  and  _173
REMARK   69  A    between atoms: _173  and  _174
REMARK   70  A    between atoms: _176  and  _178
REMARK   71  A    between atoms: _178  and  _179
REMARK   72  A    between atoms: _178  and  _181
REMARK   73  A    between atoms: _181  and  _182
REMARK   74  A    between atoms: _192  and  _194
REMARK   75  A    between atoms: _194  and  _195
REMARK   76  A    between atoms: _194  and  _197
REMARK   77  A    between atoms: _197  and  _198
REMARK   78  A    between atoms: _198  and  _199
REMARK   79  A    between atoms: _202  and  _204
REMARK   80  A    between atoms: _204  and  _205
REMARK   81  A    between atoms: _204  and  _207
REMARK   82  A    between atoms: _207  and  _208
REMARK   83  A    between atoms: _211  and  _213
REMARK   84  A    between atoms: _213  and  _214
REMARK   85  A    between atoms: _213  and  _216
REMARK   86  A    between atoms: _216  and  _217
REMARK   87  A    between atoms: _222  and  _223
REMARK   88  A    between atoms: _225  and  _227
REMARK   89  A    between atoms: _227  and  _228
REMARK   90  A    between atoms: _231  and  _233
REMARK   91  A    between atoms: _233  and  _234
REMARK   92  A    between atoms: _233  and  _236
REMARK   93  A    between atoms: _236  and  _237
REMARK   94  A    between atoms: _242  and  _243
REMARK   95  A    between atoms: _245  and  _247
REMARK   96  A    between atoms: _247  and  _248
REMARK   97  A    between atoms: _247  and  _250
REMARK   98  A    between atoms: _250  and  _251
REMARK   99  A    between atoms: _254  and  _256
REMARK  100  A    between atoms: _256  and  _257
REMARK  101  A    between atoms: _256  and  _259
REMARK  102  A    between atoms: _259  and  _260
REMARK  103  A    between atoms: _263  and  _265
REMARK  104  A    between atoms: _265  and  _266
REMARK  105  A    between atoms: _265  and  _268
REMARK  106  A    between atoms: _268  and  _269
REMARK  107  A    between atoms: _275  and  _277
REMARK  108  A    between atoms: _277  and  _278
REMARK  109  A    between atoms: _277  and  _280
REMARK                            x       y       z     vdW  Elec       q    Type
REMARK                         _______ _______ _______ _____ _____    ______ ____
ROOT
ATOM      1  CA  ASP A   2      57.574   0.408  -7.277  0.00  0.00    +0.160 C 
ENDROOT
BRANCH   1   2
ATOM      2  C   ASP A   2      59.020   0.841  -7.492  0.00  0.00    +0.241 C 
ATOM      3  N   SER A   3      59.390   1.988  -6.948  0.00  0.00    -0.295 N 
ATOM      4  H   SER A   3      58.701   2.549  -6.408  0.00  0.00    +0.150 HD
ATOM      5  O   ASP A   2      59.786   0.148  -8.157  0.00  0.00    -0.273 OA
BRANCH   3   6
ATOM      6  CA  SER A   3      60.751   2.471  -7.099  0.00  0.00    +0.178 C 
BRANCH   6   7
ATOM      7  C   SER A   3      61.090   3.585  -6.126  0.00  0.00    +0.243 C 
ATOM      8  N   SER A   4      62.163   3.397  -5.358  0.00  0.00    -0.296 N 
ATOM      9  H   SER A   4      62.702   2.512  -5.447  0.00  0.00    +0.150 HD
ATOM     10  O   SER A   3      60.401   4.601  -6.082  0.00  0.00    -0.273 OA
BRANCH   8  11
ATOM     11  CA  SER A   4      62.596   4.397  -4.401  0.00  0.00    +0.166 C 
BRANCH  11  12
ATOM     12  CB  SER A   4      63.254   5.519  -5.188  0.00  0.00    +0.229 C 
ATOM     13  OG  SER A   4      63.292   6.667  -4.749  0.00  0.00    -0.286 OA
ENDBRANCH  11  12
BRANCH  11  14
ATOM     14  C   SER A   4      63.600   3.794  -3.417  0.00  0.00    +0.165 C 
BRANCH  14  15
ATOM     15  O   SER A   4      64.753   3.339  -4.117  0.00  0.00    -0.380 OA
ATOM     16  H   SER A   4      65.174   4.101  -4.587  0.00  0.00    +0.211 HD
ENDBRANCH  14  15
ENDBRANCH  11  14
ENDBRANCH   8  11
ENDBRANCH   6   7
BRANCH   6  17
ATOM     17  CB  SER A   3      60.979   2.939  -8.536  0.00  0.00    +0.166 C 
BRANCH  17  18
ATOM     18  OG  SER A   3      62.271   3.504  -8.689  0.00  0.00    -0.380 OA
ATOM     19  H   SER A   3      62.956   2.825  -8.464  0.00  0.00    +0.211 HD
ENDBRANCH  17  18
ENDBRANCH   6  17
ENDBRANCH   3   6
ENDBRANCH   1   2
BRANCH   1  22
ATOM     20  C   PHE A   1      55.831  -0.571  -8.666  0.00  0.00    +0.239 C 
ATOM     21  O   PHE A   1      54.950  -0.091  -7.957  0.00  0.00    -0.274 OA
ATOM     22  N   ASP A   2      57.126  -0.379  -8.424  0.00  0.00    -0.297 N 
ATOM     23  H   ASP A   2      57.832  -0.797  -9.063  0.00  0.00    +0.150 HD
BRANCH  20  24
ATOM     24  CA  PHE A   1      55.466  -1.404  -9.888  0.00  0.00    +0.149 C 
BRANCH  24  25
ATOM     25  N   PHE A   1      56.563  -1.510 -10.829  0.00  0.00    -0.238 NA
ATOM     26  H   PHE A   1      57.460  -1.943 -10.532  0.00  0.00    +0.142 HD
ENDBRANCH  24  25
BRANCH  24  27
ATOM     27  CB  PHE A   1      54.934  -2.799  -9.495  0.00  0.00    +0.053 C 
BRANCH  27  28
ATOM     28  CG  PHE A   1      55.899  -3.637  -8.677  0.00  0.00    -0.020 A 
ATOM     29  CD2 PHE A   1      56.012  -3.458  -7.300  0.00  0.00    -0.004 A 
ATOM     30  CE2 PHE A   1      56.857  -4.256  -6.540  0.00  0.00    -0.000 A 
ATOM     31  CZ  PHE A   1      57.601  -5.246  -7.150  0.00  0.00    -0.000 A 
ATOM     32  CE1 PHE A   1      57.503  -5.440  -8.518  0.00  0.00    -0.000 A 
ATOM     33  CD1 PHE A   1      56.653  -4.632  -9.277  0.00  0.00    -0.004 A 
ENDBRANCH  27  28
ENDBRANCH  24  27
ENDBRANCH  20  24
ENDBRANCH   1  22
BRANCH   1  34
ATOM     34  CB  ASP A   2      57.466  -0.413  -5.986  0.00  0.00    +0.143 C 
BRANCH  34  35
ATOM     35  CG  ASP A   2      57.638   0.432  -4.736  0.00  0.00    +0.367 C 
ATOM     36  OD2 ASP A   2      58.014  -0.135  -3.690  0.00  0.00    -0.246 OA
ATOM     37  OD1 ASP A   2      57.372   1.653  -4.779  0.00  0.00    -0.246 OA
ENDBRANCH  34  35
ENDBRANCH   1  34
TORSDOF 16
REMARK  Name = ../refined-set-2016/1d7j/1d7j_pocket.pdb
REMARK  109 active torsions:
REMARK  status: ('A' for Active; 'I' for Inactive)
REMARK    1  A    between atoms: _1  and  _3
REMARK    2  A    between atoms: _3  and  _4
REMARK    3  A    between atoms: _3  and  _6
REMARK    4  A    between atoms: _9  and  _11
REMARK    5  A    between atoms: _11  and  _12
REMARK    6  A    between atoms: _11  and  _14
REMARK    7  A    between atoms: _14  and  _15
REMARK    8  A    between atoms: _20  and  _21
REMARK    9  A    between atoms: _23  and  _25
REMARK   10  A    between atoms: _25  and  _26
REMARK   11  A    between atoms: _25  and  _28
REMARK   12  A    between atoms: _28  and  _29
REMARK   13  A    between atoms: _32  and  _34
REMARK   14  A    between atoms: _34  and  _35
REMARK   15  A    between atoms: _37  and  _39
REMARK   16  A    between atoms: _39  and  _40
REMARK   17  A    between atoms: _39  and  _42
REMARK   18  A    between atoms: _42  and  _43
REMARK   19  A    between atoms: _49  and  _51
REMARK   20  A    between atoms: _51  and  _52
REMARK   21  A    between atoms: _51  and  _54
REMARK   22  A    between atoms: _54  and  _55
REMARK   23  A    between atoms: _58  and  _60
REMARK   24  A    between atoms: _60  and  _61
REMARK   25  A    between atoms: _60  and  _63
REMARK   26  A    between atoms: _63  and  _64
REMARK   27  A    between atoms: _66  and  _68
REMARK   28  A    between atoms: _68  and  _69
REMARK   29  A    between atoms: _68  and  _71
REMARK   30  A    between atoms: _71  and  _72
REMARK   31  A    between atoms: _74  and  _76
REMARK   32  A    between atoms: _76  and  _77
REMARK   33  A    between atoms: _76  and  _79
REMARK   34  A    between atoms: _79  and  _80
REMARK   35  A    between atoms: _80  and  _81
REMARK   36  A    between atoms: _81  and  _82
REMARK   37  A    between atoms: _91  and  _93
REMARK   38  A    between atoms: _93  and  _94
REMARK   39  A    between atoms: _93  and  _96
REMARK   40  A    between atoms: _96  and  _97
REMARK   41  A    between atoms: _103  and  _105
REMARK   42  A    between atoms: _105  and  _106
REMARK   43  A    between atoms: _105  and  _108
REMARK   44  A    between atoms: _108  and  _109
REMARK   45  A    between atoms: _115  and  _117
REMARK   46  A    between atoms: _117  and  _118
REMARK   47  A    between atoms: _117  and  _120
REMARK   48  A    between atoms: _120  and  _121
REMARK   49  A    between atoms: _121  and  _122
REMARK   50  A    between atoms: _127  and  _129
REMARK   51  A    between atoms: _129  and  _130
REMARK   52  A    between atoms: _129  and  _132
REMARK   53  A    between atoms: _132  and  _133
REMARK   54  A    between atoms: _133  and  _134
REMARK   55  A    between atoms: _137  and  _139
REMARK   56  A    between atoms: _139  and  _140
REMARK   57  A    between atoms: _139  and  _142
REMARK   58  A    between atoms: _145  and  _147
REMARK   59  A    between atoms: _147  and  _148
REMARK   60  A    between atoms: _147  and  _150
REMARK   61  A    between atoms: _150  and  _151
REMARK   62  A    between atoms: _154  and  _156
REMARK   63  A    between atoms: _156  and  _157
REMARK   64  A    between atoms: _156  and  _159
REMARK   65  A    between atoms: _159  and  _160
REMARK   66  A    between atoms: _160  and  _161
REMARK   67  A    between atoms: _161  and  _162
REMARK   68  A    between atoms: _171  and  _173
REMARK   69  A    between atoms: _173  and  _174
REMARK   70  A    between atoms: _176  and  _178
REMARK   71  A    between atoms: _178  and  _179
REMARK   72  A    between atoms: _178  and  _181
REMARK   73  A    between atoms: _181  and  _182
REMARK   74  A    between atoms: _192  and  _194
REMARK   75  A    between atoms: _194  and  _195
REMARK   76  A    between atoms: _194  and  _197
REMARK   77  A    between atoms: _197  and  _198
REMARK   78  A    between atoms: _198  and  _199
REMARK   79  A    between atoms: _202  and  _204
REMARK   80  A    between atoms: _204  and  _205
REMARK   81  A    between atoms: _204  and  _207
REMARK   82  A    between atoms: _207  and  _208
REMARK   83  A    between atoms: _211  and  _213
REMARK   84  A    between atoms: _213  and  _214
REMARK   85  A    between atoms: _213  and  _216
REMARK   86  A    between atoms: _216  and  _217
REMARK   87  A    between atoms: _222  and  _223
REMARK   88  A    between atoms: _225  and  _227
REMARK   89  A    between atoms: _227  and  _228
REMARK   90  A    between atoms: _231  and  _233
REMARK   91  A    between atoms: _233  and  _234
REMARK   92  A    between atoms: _233  and  _236
REMARK   93  A    between atoms: _236  and  _237
REMARK   94  A    between atoms: _242  and  _243
REMARK   95  A    between atoms: _245  and  _247
REMARK   96  A    between atoms: _247  and  _248
REMARK   97  A    between atoms: _247  and  _250
REMARK   98  A    between atoms: _250  and  _251
REMARK   99  A    between atoms: _254  and  _256
REMARK  100  A    between atoms: _256  and  _257
REMARK  101  A    between atoms: _256  and  _259
REMARK  102  A    between atoms: _259  and  _260
REMARK  103  A    between atoms: _263  and  _265
REMARK  104  A    between atoms: _265  and  _266
REMARK  105  A    between atoms: _265  and  _268
REMARK  106  A    between atoms: _268  and  _269
REMARK  107  A    between atoms: _275  and  _277
REMARK  108  A    between atoms: _277  and  _278
REMARK  109  A    between atoms: _277  and  _280
REMARK                            x       y       z     vdW  Elec       q    Type
REMARK                         _______ _______ _______ _____ _____    ______ ____
ROOT
ATOM      1  NE  ARG A   1      58.937   5.730  -2.502  0.00  0.00    -0.265 N 
ATOM      2  HE  ARG A   1      59.533   6.071  -1.721  0.00  0.00    +0.259 HD
ATOM      3  CZ  ARG A   1      59.068   4.437  -2.797  0.00  0.00    +0.342 C 
ATOM      4  NH2 ARG A   1      60.028   3.786  -2.156  0.00  0.00    -0.292 N 
ATOM      5 HH21 ARG A   1      60.626   4.287  -1.468  0.00  0.00    +0.255 HD
ATOM      6 HH22 ARG A   1      60.183   2.774  -2.340  0.00  0.00    +0.255 HD
ATOM      7  NH1 ARG A   1      58.349   3.809  -3.717  0.00  0.00    -0.292 N 
ATOM      8 HH11 ARG A   1      58.504   2.796  -3.896  0.00  0.00    +0.255 HD
ATOM      9 HH12 ARG A   1      57.630   4.329  -4.260  0.00  0.00    +0.255 HD
ENDROOT
BRANCH   1  10
ATOM     10  CD  ARG A   1      58.087   6.724  -3.110  0.00  0.00    +0.174 C 
BRANCH  10  11
ATOM     11  CG  ARG A   1      58.814   7.685  -4.041  0.00  0.00    +0.045 C 
BRANCH  11  12
ATOM     12  CB  ARG A   1      60.145   8.274  -3.594  0.00  0.00    +0.029 C 
BRANCH  12  13
ATOM     13  CA  ARG A   1      60.732   9.125  -4.731  0.00  0.00    +0.133 C 
BRANCH  13  14
ATOM     14  N   ARG A   1      60.974   8.296  -5.902  0.00  0.00    -0.239 NA
ATOM     15  H   ARG A   1      61.204   7.290  -5.776  0.00  0.00    +0.142 HD
ENDBRANCH  13  14
BRANCH  13  16
ATOM     16  C   ARG A   1      61.998   9.843  -4.290  0.00  0.00    +0.224 C 
ATOM     17  O   ARG A   1      61.960  10.629  -3.350  0.00  0.00    -0.287 OA
ENDBRANCH  13  16
ENDBRANCH  12  13
ENDBRANCH  11  12
ENDBRANCH  10  11
ENDBRANCH   1  10
TORSDOF 6
REMARK  Name = ../refined-set-2016/1d7j/1d7j_pocket.pdb
REMARK  109 active torsions:
REMARK  status: ('A' for Active; 'I' for Inactive)
REMARK    1  A    between atoms: _1  and  _3
REMARK    2  A    between atoms: _3  and  _4
REMARK    3  A    between atoms: _3  and  _6
REMARK    4  A    between atoms: _9  and  _11
REMARK    5  A    between atoms: _11  and  _12
REMARK    6  A    between atoms: _11  and  _14
REMARK    7  A    between atoms: _14  and  _15
REMARK    8  A    between atoms: _20  and  _21
REMARK    9  A    between atoms: _23  and  _25
REMARK   10  A    between atoms: _25  and  _26
REMARK   11  A    between atoms: _25  and  _28
REMARK   12  A    between atoms: _28  and  _29
REMARK   13  A    between atoms: _32  and  _34
REMARK   14  A    between atoms: _34  and  _35
REMARK   15  A    between atoms: _37  and  _39
REMARK   16  A    between atoms: _39  and  _40
REMARK   17  A    between atoms: _39  and  _42
REMARK   18  A    between atoms: _42  and  _43
REMARK   19  A    between atoms: _49  and  _51
REMARK   20  A    between atoms: _51  and  _52
REMARK   21  A    between atoms: _51  and  _54
REMARK   22  A    between atoms: _54  and  _55
REMARK   23  A    between atoms: _58  and  _60
REMARK   24  A    between atoms: _60  and  _61
REMARK   25  A    between atoms: _60  and  _63
REMARK   26  A    between atoms: _63  and  _64
REMARK   27  A    between atoms: _66  and  _68
REMARK   28  A    between atoms: _68  and  _69
REMARK   29  A    between atoms: _68  and  _71
REMARK   30  A    between atoms: _71  and  _72
REMARK   31  A    between atoms: _74  and  _76
REMARK   32  A    between atoms: _76  and  _77
REMARK   33  A    between atoms: _76  and  _79
REMARK   34  A    between atoms: _79  and  _80
REMARK   35  A    between atoms: _80  and  _81
REMARK   36  A    between atoms: _81  and  _82
REMARK   37  A    between atoms: _91  and  _93
REMARK   38  A    between atoms: _93  and  _94
REMARK   39  A    between atoms: _93  and  _96
REMARK   40  A    between atoms: _96  and  _97
REMARK   41  A    between atoms: _103  and  _105
REMARK   42  A    between atoms: _105  and  _106
REMARK   43  A    between atoms: _105  and  _108
REMARK   44  A    between atoms: _108  and  _109
REMARK   45  A    between atoms: _115  and  _117
REMARK   46  A    between atoms: _117  and  _118
REMARK   47  A    between atoms: _117  and  _120
REMARK   48  A    between atoms: _120  and  _121
REMARK   49  A    between atoms: _121  and  _122
REMARK   50  A    between atoms: _127  and  _129
REMARK   51  A    between atoms: _129  and  _130
REMARK   52  A    between atoms: _129  and  _132
REMARK   53  A    between atoms: _132  and  _133
REMARK   54  A    between atoms: _133  and  _134
REMARK   55  A    between atoms: _137  and  _139
REMARK   56  A    between atoms: _139  and  _140
REMARK   57  A    between atoms: _139  and  _142
REMARK   58  A    between atoms: _145  and  _147
REMARK   59  A    between atoms: _147  and  _148
REMARK   60  A    between atoms: _147  and  _150
REMARK   61  A    between atoms: _150  and  _151
REMARK   62  A    between atoms: _154  and  _156
REMARK   63  A    between atoms: _156  and  _157
REMARK   64  A    between atoms: _156  and  _159
REMARK   65  A    between atoms: _159  and  _160
REMARK   66  A    between atoms: _160  and  _161
REMARK   67  A    between atoms: _161  and  _162
REMARK   68  A    between atoms: _171  and  _173
REMARK   69  A    between atoms: _173  and  _174
REMARK   70  A    between atoms: _176  and  _178
REMARK   71  A    between atoms: _178  and  _179
REMARK   72  A    between atoms: _178  and  _181
REMARK   73  A    between atoms: _181  and  _182
REMARK   74  A    between atoms: _192  and  _194
REMARK   75  A    between atoms: _194  and  _195
REMARK   76  A    between atoms: _194  and  _197
REMARK   77  A    between atoms: _197  and  _198
REMARK   78  A    between atoms: _198  and  _199
REMARK   79  A    between atoms: _202  and  _204
REMARK   80  A    between atoms: _204  and  _205
REMARK   81  A    between atoms: _204  and  _207
REMARK   82  A    between atoms: _207  and  _208
REMARK   83  A    between atoms: _211  and  _213
REMARK   84  A    between atoms: _213  and  _214
REMARK   85  A    between atoms: _213  and  _216
REMARK   86  A    between atoms: _216  and  _217
REMARK   87  A    between atoms: _222  and  _223
REMARK   88  A    between atoms: _225  and  _227
REMARK   89  A    between atoms: _227  and  _228
REMARK   90  A    between atoms: _231  and  _233
REMARK   91  A    between atoms: _233  and  _234
REMARK   92  A    between atoms: _233  and  _236
REMARK   93  A    between atoms: _236  and  _237
REMARK   94  A    between atoms: _242  and  _243
REMARK   95  A    between atoms: _245  and  _247
REMARK   96  A    between atoms: _247  and  _248
REMARK   97  A    between atoms: _247  and  _250
REMARK   98  A    between atoms: _250  and  _251
REMARK   99  A    between atoms: _254  and  _256
REMARK  100  A    between atoms: _256  and  _257
REMARK  101  A    between atoms: _256  and  _259
REMARK  102  A    between atoms: _259  and  _260
REMARK  103  A    between atoms: _263  and  _265
REMARK  104  A    between atoms: _265  and  _266
REMARK  105  A    between atoms: _265  and  _268
REMARK  106  A    between atoms: _268  and  _269
REMARK  107  A    between atoms: _275  and  _277
REMARK  108  A    between atoms: _277  and  _278
REMARK  109  A    between atoms: _277  and  _280
REMARK                            x       y       z     vdW  Elec       q    Type
REMARK                         _______ _______ _______ _____ _____    ______ ____
ROOT
ATOM      1  CB  PHE A   1      64.269   1.629   0.581  0.00  0.00    +0.051 C 
ENDROOT
BRANCH   1   2
ATOM      2  CG  PHE A   1      63.483   0.634   1.382  0.00  0.00    -0.020 A 
ATOM      3  CD2 PHE A   1      62.341   1.022   2.065  0.00  0.00    -0.004 A 
ATOM      4  CE2 PHE A   1      61.612   0.098   2.810  0.00  0.00    -0.000 A 
ATOM      5  CZ  PHE A   1      62.029  -1.236   2.870  0.00  0.00    -0.000 A 
ATOM      6  CE1 PHE A   1      63.164  -1.627   2.191  0.00  0.00    -0.000 A 
ATOM      7  CD1 PHE A   1      63.887  -0.697   1.452  0.00  0.00    -0.004 A 
ENDBRANCH   1   2
BRANCH   1   8
ATOM      8  CA  PHE A   1      65.011   2.667   1.429  0.00  0.00    +0.137 C 
BRANCH   8   9
ATOM      9  N   PHE A   1      65.808   3.507   0.550  0.00  0.00    -0.239 NA
ATOM     10  H   PHE A   1      66.368   3.051  -0.198  0.00  0.00    +0.142 HD
ENDBRANCH   8   9
BRANCH   8  11
ATOM     11  C   PHE A   1      65.966   1.987   2.403  0.00  0.00    +0.224 C 
ATOM     12  O   PHE A   1      67.085   1.636   2.027  0.00  0.00    -0.287 OA
ENDBRANCH   8  11
ENDBRANCH   1   8
TORSDOF 4
REMARK  Name = ../refined-set-2016/1d7j/1d7j_pocket.pdb
REMARK  109 active torsions:
REMARK  status: ('A' for Active; 'I' for Inactive)
REMARK    1  A    between atoms: _1  and  _3
REMARK    2  A    between atoms: _3  and  _4
REMARK    3  A    between atoms: _3  and  _6
REMARK    4  A    between atoms: _9  and  _11
REMARK    5  A    between atoms: _11  and  _12
REMARK    6  A    between atoms: _11  and  _14
REMARK    7  A    between atoms: _14  and  _15
REMARK    8  A    between atoms: _20  and  _21
REMARK    9  A    between atoms: _23  and  _25
REMARK   10  A    between atoms: _25  and  _26
REMARK   11  A    between atoms: _25  and  _28
REMARK   12  A    between atoms: _28  and  _29
REMARK   13  A    between atoms: _32  and  _34
REMARK   14  A    between atoms: _34  and  _35
REMARK   15  A    between atoms: _37  and  _39
REMARK   16  A    between atoms: _39  and  _40
REMARK   17  A    between atoms: _39  and  _42
REMARK   18  A    between atoms: _42  and  _43
REMARK   19  A    between atoms: _49  and  _51
REMARK   20  A    between atoms: _51  and  _52
REMARK   21  A    between atoms: _51  and  _54
REMARK   22  A    between atoms: _54  and  _55
REMARK   23  A    between atoms: _58  and  _60
REMARK   24  A    between atoms: _60  and  _61
REMARK   25  A    between atoms: _60  and  _63
REMARK   26  A    between atoms: _63  and  _64
REMARK   27  A    between atoms: _66  and  _68
REMARK   28  A    between atoms: _68  and  _69
REMARK   29  A    between atoms: _68  and  _71
REMARK   30  A    between atoms: _71  and  _72
REMARK   31  A    between atoms: _74  and  _76
REMARK   32  A    between atoms: _76  and  _77
REMARK   33  A    between atoms: _76  and  _79
REMARK   34  A    between atoms: _79  and  _80
REMARK   35  A    between atoms: _80  and  _81
REMARK   36  A    between atoms: _81  and  _82
REMARK   37  A    between atoms: _91  and  _93
REMARK   38  A    between atoms: _93  and  _94
REMARK   39  A    between atoms: _93  and  _96
REMARK   40  A    between atoms: _96  and  _97
REMARK   41  A    between atoms: _103  and  _105
REMARK   42  A    between atoms: _105  and  _106
REMARK   43  A    between atoms: _105  and  _108
REMARK   44  A    between atoms: _108  and  _109
REMARK   45  A    between atoms: _115  and  _117
REMARK   46  A    between atoms: _117  and  _118
REMARK   47  A    between atoms: _117  and  _120
REMARK   48  A    between atoms: _120  and  _121
REMARK   49  A    between atoms: _121  and  _122
REMARK   50  A    between atoms: _127  and  _129
REMARK   51  A    between atoms: _129  and  _130
REMARK   52  A    between atoms: _129  and  _132
REMARK   53  A    between atoms: _132  and  _133
REMARK   54  A    between atoms: _133  and  _134
REMARK   55  A    between atoms: _137  and  _139
REMARK   56  A    between atoms: _139  and  _140
REMARK   57  A    between atoms: _139  and  _142
REMARK   58  A    between atoms: _145  and  _147
REMARK   59  A    between atoms: _147  and  _148
REMARK   60  A    between atoms: _147  and  _150
REMARK   61  A    between atoms: _150  and  _151
REMARK   62  A    between atoms: _154  and  _156
REMARK   63  A    between atoms: _156  and  _157
REMARK   64  A    between atoms: _156  and  _159
REMARK   65  A    between atoms: _159  and  _160
REMARK   66  A    between atoms: _160  and  _161
REMARK   67  A    between atoms: _161  and  _162
REMARK   68  A    between atoms: _171  and  _173
REMARK   69  A    between atoms: _173  and  _174
REMARK   70  A    between atoms: _176  and  _178
REMARK   71  A    between atoms: _178  and  _179
REMARK   72  A    between atoms: _178  and  _181
REMARK   73  A    between atoms: _181  and  _182
REMARK   74  A    between atoms: _192  and  _194
REMARK   75  A    between atoms: _194  and  _195
REMARK   76  A    between atoms: _194  and  _197
REMARK   77  A    between atoms: _197  and  _198
REMARK   78  A    between atoms: _198  and  _199
REMARK   79  A    between atoms: _202  and  _204
REMARK   80  A    between atoms: _204  and  _205
REMARK   81  A    between atoms: _204  and  _207
REMARK   82  A    between atoms: _207  and  _208
REMARK   83  A    between atoms: _211  and  _213
REMARK   84  A    between atoms: _213  and  _214
REMARK   85  A    between atoms: _213  and  _216
REMARK   86  A    between atoms: _216  and  _217
REMARK   87  A    between atoms: _222  and  _223
REMARK   88  A    between atoms: _225  and  _227
REMARK   89  A    between atoms: _227  and  _228
REMARK   90  A    between atoms: _231  and  _233
REMARK   91  A    between atoms: _233  and  _234
REMARK   92  A    between atoms: _233  and  _236
REMARK   93  A    between atoms: _236  and  _237
REMARK   94  A    between atoms: _242  and  _243
REMARK   95  A    between atoms: _245  and  _247
REMARK   96  A    between atoms: _247  and  _248
REMARK   97  A    between atoms: _247  and  _250
REMARK   98  A    between atoms: _250  and  _251
REMARK   99  A    between atoms: _254  and  _256
REMARK  100  A    between atoms: _256  and  _257
REMARK  101  A    between atoms: _256  and  _259
REMARK  102  A    between atoms: _259  and  _260
REMARK  103  A    between atoms: _263  and  _265
REMARK  104  A    between atoms: _265  and  _266
REMARK  105  A    between atoms: _265  and  _268
REMARK  106  A    between atoms: _268  and  _269
REMARK  107  A    between atoms: _275  and  _277
REMARK  108  A    between atoms: _277  and  _278
REMARK  109  A    between atoms: _277  and  _280
REMARK                            x       y       z     vdW  Elec       q    Type
REMARK                         _______ _______ _______ _____ _____    ______ ____
ROOT
ATOM      1  CB  PHE A   1      65.144  -3.153   5.258  0.00  0.00    +0.051 C 
ENDROOT
BRANCH   1   2
ATOM      2  CG  PHE A   1      66.121  -3.940   4.411  0.00  0.00    -0.020 A 
ATOM      3  CD2 PHE A   1      66.523  -5.225   4.792  0.00  0.00    -0.004 A 
ATOM      4  CE2 PHE A   1      67.356  -5.991   3.974  0.00  0.00    -0.000 A 
ATOM      5  CZ  PHE A   1      67.801  -5.480   2.763  0.00  0.00    -0.000 A 
ATOM      6  CE1 PHE A   1      67.415  -4.197   2.369  0.00  0.00    -0.000 A 
ATOM      7  CD1 PHE A   1      66.578  -3.433   3.196  0.00  0.00    -0.004 A 
ENDBRANCH   1   2
BRANCH   1   8
ATOM      8  CA  PHE A   1      65.801  -2.203   6.268  0.00  0.00    +0.137 C 
BRANCH   8   9
ATOM      9  N   PHE A   1      66.369  -1.035   5.621  0.00  0.00    -0.239 NA
ATOM     10  H   PHE A   1      67.387  -1.018   5.411  0.00  0.00    +0.142 HD
ENDBRANCH   8   9
BRANCH   8  11
ATOM     11  C   PHE A   1      66.941  -2.897   6.994  0.00  0.00    +0.224 C 
ATOM     12  O   PHE A   1      68.085  -2.834   6.544  0.00  0.00    -0.287 OA
ENDBRANCH   8  11
ENDBRANCH   1   8
TORSDOF 4
REMARK  Name = ../refined-set-2016/1d7j/1d7j_pocket.pdb
REMARK  109 active torsions:
REMARK  status: ('A' for Active; 'I' for Inactive)
REMARK    1  A    between atoms: _1  and  _3
REMARK    2  A    between atoms: _3  and  _4
REMARK    3  A    between atoms: _3  and  _6
REMARK    4  A    between atoms: _9  and  _11
REMARK    5  A    between atoms: _11  and  _12
REMARK    6  A    between atoms: _11  and  _14
REMARK    7  A    between atoms: _14  and  _15
REMARK    8  A    between atoms: _20  and  _21
REMARK    9  A    between atoms: _23  and  _25
REMARK   10  A    between atoms: _25  and  _26
REMARK   11  A    between atoms: _25  and  _28
REMARK   12  A    between atoms: _28  and  _29
REMARK   13  A    between atoms: _32  and  _34
REMARK   14  A    between atoms: _34  and  _35
REMARK   15  A    between atoms: _37  and  _39
REMARK   16  A    between atoms: _39  and  _40
REMARK   17  A    between atoms: _39  and  _42
REMARK   18  A    between atoms: _42  and  _43
REMARK   19  A    between atoms: _49  and  _51
REMARK   20  A    between atoms: _51  and  _52
REMARK   21  A    between atoms: _51  and  _54
REMARK   22  A    between atoms: _54  and  _55
REMARK   23  A    between atoms: _58  and  _60
REMARK   24  A    between atoms: _60  and  _61
REMARK   25  A    between atoms: _60  and  _63
REMARK   26  A    between atoms: _63  and  _64
REMARK   27  A    between atoms: _66  and  _68
REMARK   28  A    between atoms: _68  and  _69
REMARK   29  A    between atoms: _68  and  _71
REMARK   30  A    between atoms: _71  and  _72
REMARK   31  A    between atoms: _74  and  _76
REMARK   32  A    between atoms: _76  and  _77
REMARK   33  A    between atoms: _76  and  _79
REMARK   34  A    between atoms: _79  and  _80
REMARK   35  A    between atoms: _80  and  _81
REMARK   36  A    between atoms: _81  and  _82
REMARK   37  A    between atoms: _91  and  _93
REMARK   38  A    between atoms: _93  and  _94
REMARK   39  A    between atoms: _93  and  _96
REMARK   40  A    between atoms: _96  and  _97
REMARK   41  A    between atoms: _103  and  _105
REMARK   42  A    between atoms: _105  and  _106
REMARK   43  A    between atoms: _105  and  _108
REMARK   44  A    between atoms: _108  and  _109
REMARK   45  A    between atoms: _115  and  _117
REMARK   46  A    between atoms: _117  and  _118
REMARK   47  A    between atoms: _117  and  _120
REMARK   48  A    between atoms: _120  and  _121
REMARK   49  A    between atoms: _121  and  _122
REMARK   50  A    between atoms: _127  and  _129
REMARK   51  A    between atoms: _129  and  _130
REMARK   52  A    between atoms: _129  and  _132
REMARK   53  A    between atoms: _132  and  _133
REMARK   54  A    between atoms: _133  and  _134
REMARK   55  A    between atoms: _137  and  _139
REMARK   56  A    between atoms: _139  and  _140
REMARK   57  A    between atoms: _139  and  _142
REMARK   58  A    between atoms: _145  and  _147
REMARK   59  A    between atoms: _147  and  _148
REMARK   60  A    between atoms: _147  and  _150
REMARK   61  A    between atoms: _150  and  _151
REMARK   62  A    between atoms: _154  and  _156
REMARK   63  A    between atoms: _156  and  _157
REMARK   64  A    between atoms: _156  and  _159
REMARK   65  A    between atoms: _159  and  _160
REMARK   66  A    between atoms: _160  and  _161
REMARK   67  A    between atoms: _161  and  _162
REMARK   68  A    between atoms: _171  and  _173
REMARK   69  A    between atoms: _173  and  _174
REMARK   70  A    between atoms: _176  and  _178
REMARK   71  A    between atoms: _178  and  _179
REMARK   72  A    between atoms: _178  and  _181
REMARK   73  A    between atoms: _181  and  _182
REMARK   74  A    between atoms: _192  and  _194
REMARK   75  A    between atoms: _194  and  _195
REMARK   76  A    between atoms: _194  and  _197
REMARK   77  A    between atoms: _197  and  _198
REMARK   78  A    between atoms: _198  and  _199
REMARK   79  A    between atoms: _202  and  _204
REMARK   80  A    between atoms: _204  and  _205
REMARK   81  A    between atoms: _204  and  _207
REMARK   82  A    between atoms: _207  and  _208
REMARK   83  A    between atoms: _211  and  _213
REMARK   84  A    between atoms: _213  and  _214
REMARK   85  A    between atoms: _213  and  _216
REMARK   86  A    between atoms: _216  and  _217
REMARK   87  A    between atoms: _222  and  _223
REMARK   88  A    between atoms: _225  and  _227
REMARK   89  A    between atoms: _227  and  _228
REMARK   90  A    between atoms: _231  and  _233
REMARK   91  A    between atoms: _233  and  _234
REMARK   92  A    between atoms: _233  and  _236
REMARK   93  A    between atoms: _236  and  _237
REMARK   94  A    between atoms: _242  and  _243
REMARK   95  A    between atoms: _245  and  _247
REMARK   96  A    between atoms: _247  and  _248
REMARK   97  A    between atoms: _247  and  _250
REMARK   98  A    between atoms: _250  and  _251
REMARK   99  A    between atoms: _254  and  _256
REMARK  100  A    between atoms: _256  and  _257
REMARK  101  A    between atoms: _256  and  _259
REMARK  102  A    between atoms: _259  and  _260
REMARK  103  A    between atoms: _263  and  _265
REMARK  104  A    between atoms: _265  and  _266
REMARK  105  A    between atoms: _265  and  _268
REMARK  106  A    between atoms: _268  and  _269
REMARK  107  A    between atoms: _275  and  _277
REMARK  108  A    between atoms: _277  and  _278
REMARK  109  A    between atoms: _277  and  _280
REMARK                            x       y       z     vdW  Elec       q    Type
REMARK                         _______ _______ _______ _____ _____    ______ ____
ROOT
ATOM      1  CA  ARG A   5      62.961 -13.412   1.701  0.00  0.00    +0.149 C 
ENDROOT
BRANCH   1   2
ATOM      2  C   ARG A   5      64.062 -13.272   0.637  0.00  0.00    +0.241 C 
ATOM      3  O   ARG A   5      65.255 -13.304   0.973  0.00  0.00    -0.273 OA
ATOM      4  N   GLY A   6      63.663 -13.103  -0.624  0.00  0.00    -0.295 N 
ATOM      5  H   GLY A   6      62.644 -13.088  -0.832  0.00  0.00    +0.150 HD
BRANCH   4   6
ATOM      6  CA  GLY A   6      64.610 -12.939  -1.719  0.00  0.00    +0.176 C 
BRANCH   6   7
ATOM      7  C   GLY A   6      65.551 -11.748  -1.546  0.00  0.00    +0.243 C 
ATOM      8  N   TRP A   7      65.095 -10.720  -0.825  0.00  0.00    -0.297 N 
ATOM      9  H   TRP A   7      64.128 -10.762  -0.445  0.00  0.00    +0.150 HD
ATOM     10  O   GLY A   6      66.652 -11.735  -2.110  0.00  0.00    -0.273 OA
BRANCH   8  11
ATOM     11  CA  TRP A   7      65.911  -9.536  -0.552  0.00  0.00    +0.153 C 
BRANCH  11  12
ATOM     12  C   TRP A   7      66.894  -9.877   0.550  0.00  0.00    +0.241 C 
ATOM     13  N   GLU A   8      66.385 -10.487   1.617  0.00  0.00    -0.298 N 
ATOM     14  H   GLU A   8      65.365 -10.687   1.643  0.00  0.00    +0.150 HD
ATOM     15  O   TRP A   7      68.083  -9.601   0.432  0.00  0.00    -0.273 OA
BRANCH  13  16
ATOM     16  CA  GLU A   8      67.211 -10.884   2.750  0.00  0.00    +0.137 C 
BRANCH  16  17
ATOM     17  C   GLU A   8      68.360 -11.762   2.265  0.00  0.00    +0.227 C 
ATOM     18  O   GLU A   8      69.514 -11.546   2.638  0.00  0.00    -0.286 OA
ENDBRANCH  16  17
BRANCH  16  19
ATOM     19  CB  GLU A   8      66.382 -11.666   3.764  0.00  0.00    +0.039 C 
BRANCH  19  20
ATOM     20  CG  GLU A   8      65.272 -10.868   4.411  0.00  0.00    +0.116 C 
BRANCH  20  21
ATOM     21  CD  GLU A   8      65.517 -10.623   5.887  0.00  0.00    +0.365 C 
ATOM     22  OE2 GLU A   8      65.176 -11.494   6.707  0.00  0.00    -0.246 OA
ATOM     23  OE1 GLU A   8      66.022  -9.548   6.238  0.00  0.00    -0.246 OA
ENDBRANCH  20  21
ENDBRANCH  19  20
ENDBRANCH  16  19
ENDBRANCH  13  16
ENDBRANCH  11  12
BRANCH  11  24
ATOM     24  CB  TRP A   7      65.047  -8.354  -0.094  0.00  0.00    +0.057 C 
BRANCH  24  25
ATOM     25  CG  TRP A   7      64.650  -7.428  -1.212  0.00  0.00    -0.002 A 
ATOM     26  CD2 TRP A   7      64.677  -5.999  -1.189  0.00  0.00    +0.013 A 
ATOM     27  CE3 TRP A   7      65.043  -5.051  -0.223  0.00  0.00    +0.001 A 
ATOM     28  CZ3 TRP A   7      64.939  -3.701  -0.544  0.00  0.00    +0.000 A 
ATOM     29  CH2 TRP A   7      64.476  -3.289  -1.812  0.00  0.00    +0.001 A 
ATOM     30  CZ2 TRP A   7      64.113  -4.199  -2.773  0.00  0.00    +0.017 A 
ATOM     31  CE2 TRP A   7      64.217  -5.553  -2.447  0.00  0.00    +0.056 A 
ATOM     32  NE1 TRP A   7      63.928  -6.663  -3.193  0.00  0.00    -0.352 N 
ATOM     33  HE1 TRP A   7      63.565  -6.658  -4.168  0.00  0.00    +0.166 HD
ATOM     34  CD1 TRP A   7      64.194  -7.783  -2.448  0.00  0.00    +0.068 A 
ENDBRANCH  24  25
ENDBRANCH  11  24
ENDBRANCH   8  11
ENDBRANCH   6   7
ENDBRANCH   4   6
ENDBRANCH   1   2
BRANCH   1  36
ATOM     35  C   ILE A   4      61.992 -11.197   1.379  0.00  0.00    +0.241 C 
ATOM     36  N   ARG A   5      61.832 -12.506   1.530  0.00  0.00    -0.297 N 
ATOM     37  H   ARG A   5      60.869 -12.898   1.526  0.00  0.00    +0.150 HD
ATOM     38  O   ILE A   4      63.104 -10.661   1.318  0.00  0.00    -0.273 OA
BRANCH  35  39
ATOM     39  CA  ILE A   4      60.711 -10.369   1.242  0.00  0.00    +0.149 C 
BRANCH  39  42
ATOM     40  C   VAL A   3      61.208  -8.826   3.020  0.00  0.00    +0.241 C 
ATOM     41  O   VAL A   3      61.325  -9.756   3.822  0.00  0.00    -0.273 OA
ATOM     42  N   ILE A   4      60.906  -9.024   1.745  0.00  0.00    -0.297 N 
ATOM     43  H   ILE A   4      60.809  -8.211   1.103  0.00  0.00    +0.150 HD
BRANCH  40  44
ATOM     44  CA  VAL A   3      61.399  -7.379   3.474  0.00  0.00    +0.149 C 
BRANCH  44  47
ATOM     45  C   GLU A   2      60.785  -6.449   5.656  0.00  0.00    +0.241 C 
ATOM     46  O   GLU A   2      60.061  -5.594   5.160  0.00  0.00    -0.273 OA
ATOM     47  N   VAL A   3      61.467  -7.334   4.933  0.00  0.00    -0.297 N 
ATOM     48  H   VAL A   3      62.072  -8.021   5.426  0.00  0.00    +0.150 HD
BRANCH  45  49
ATOM     49  CA  GLU A   2      60.979  -6.523   7.162  0.00  0.00    +0.149 C 
BRANCH  49  52
ATOM     50  C   GLN A   1      61.181  -8.922   7.604  0.00  0.00    +0.238 C 
ATOM     51  O   GLN A   1      59.963  -9.106   7.583  0.00  0.00    -0.274 OA
ATOM     52  N   GLU A   2      61.741  -7.728   7.452  0.00  0.00    -0.297 N 
ATOM     53  H   GLU A   2      62.774  -7.650   7.545  0.00  0.00    +0.150 HD
BRANCH  50  54
ATOM     54  CA  GLN A   1      62.145 -10.074   7.876  0.00  0.00    +0.145 C 
BRANCH  54  55
ATOM     55  N   GLN A   1      63.260  -9.718   8.761  0.00  0.00    -0.238 NA
ATOM     56  H   GLN A   1      64.232  -9.887   8.433  0.00  0.00    +0.142 HD
ENDBRANCH  54  55
BRANCH  54  57
ATOM     57  CB  GLN A   1      61.386 -11.271   8.444  0.00  0.00    +0.036 C 
BRANCH  57  58
ATOM     58  CG  GLN A   1      62.281 -12.447   8.754  0.00  0.00    +0.087 C 
BRANCH  58  59
ATOM     59  CD  GLN A   1      61.536 -13.597   9.380  0.00  0.00    +0.219 C 
ATOM     60  OE1 GLN A   1      60.381 -13.460   9.802  0.00  0.00    -0.275 OA
ATOM     61  NE2 GLN A   1      62.191 -14.747   9.448  0.00  0.00    -0.329 N 
ATOM     62 HE21 GLN A   1      61.735 -15.581   9.869  0.00  0.00    +0.145 HD
ATOM     63 HE22 GLN A   1      63.161 -14.815   9.080  0.00  0.00    +0.145 HD
ENDBRANCH  58  59
ENDBRANCH  57  58
ENDBRANCH  54  57
ENDBRANCH  50  54
ENDBRANCH  49  52
BRANCH  49  64
ATOM     64  CB  GLU A   2      61.756  -5.283   7.619  0.00  0.00    +0.041 C 
BRANCH  64  65
ATOM     65  CG  GLU A   2      62.233  -5.340   9.056  0.00  0.00    +0.116 C 
BRANCH  65  66
ATOM     66  CD  GLU A   2      62.960  -4.075   9.502  0.00  0.00    +0.365 C 
ATOM     67  OE2 GLU A   2      62.840  -3.716  10.698  0.00  0.00    -0.246 OA
ATOM     68  OE1 GLU A   2      63.653  -3.447   8.670  0.00  0.00    -0.246 OA
ENDBRANCH  65  66
ENDBRANCH  64  65
ENDBRANCH  49  64
ENDBRANCH  45  49
ENDBRANCH  44  47
BRANCH  44  69
ATOM     69  CB  VAL A   3      62.698  -6.804   2.820  0.00  0.00    +0.027 C 
ATOM     70  CG2 VAL A   3      63.937  -7.526   3.374  0.00  0.00    +0.002 C 
ATOM     71  CG1 VAL A   3      62.801  -5.297   3.073  0.00  0.00    +0.002 C 
ENDBRANCH  44  69
ENDBRANCH  40  44
ENDBRANCH  39  42
BRANCH  39  72
ATOM     72  CB  ILE A   4      60.208 -10.364  -0.210  0.00  0.00    +0.027 C 
ATOM     73  CG2 ILE A   4      58.827  -9.695  -0.278  0.00  0.00    +0.002 C 
BRANCH  72  74
ATOM     74  CG1 ILE A   4      61.196  -9.642  -1.126  0.00  0.00    +0.002 C 
ATOM     75  CD1 ILE A   4      60.767  -9.620  -2.563  0.00  0.00    +0.000 C 
ENDBRANCH  72  74
ENDBRANCH  39  72
ENDBRANCH  35  39
ENDBRANCH   1  36
BRANCH   1  76
ATOM     76  CB  ARG A   5      62.467 -14.855   1.783  0.00  0.00    +0.033 C 
BRANCH  76  77
ATOM     77  CG  ARG A   5      63.568 -15.861   2.060  0.00  0.00    +0.045 C 
BRANCH  77  78
ATOM     78  CD  ARG A   5      63.007 -17.236   2.307  0.00  0.00    +0.174 C 
BRANCH  78  79
ATOM     79  NE  ARG A   5      64.053 -18.256   2.273  0.00  0.00    -0.265 N 
ATOM     80  CZ  ARG A   5      63.905 -19.499   2.720  0.00  0.00    +0.342 C 
ATOM     81  NH2 ARG A   5      62.751 -19.886   3.247  0.00  0.00    -0.292 N 
ATOM     82 HH21 ARG A   5      62.639 -20.859   3.596  0.00  0.00    +0.255 HD
ATOM     83 HH22 ARG A   5      61.958 -19.216   3.312  0.00  0.00    +0.255 HD
ATOM     84  NH1 ARG A   5      64.903 -20.366   2.611  0.00  0.00    -0.292 N 
ATOM     85 HH11 ARG A   5      64.787 -21.339   2.961  0.00  0.00    +0.255 HD
ATOM     86 HH12 ARG A   5      65.801 -20.073   2.176  0.00  0.00    +0.255 HD
ATOM     87  HE  ARG A   5      64.975 -17.991   1.872  0.00  0.00    +0.259 HD
ENDBRANCH  78  79
ENDBRANCH  77  78
ENDBRANCH  76  77
ENDBRANCH   1  76
TORSDOF 34
REMARK  Name = ../refined-set-2016/1d7j/1d7j_pocket.pdb
REMARK  109 active torsions:
REMARK  status: ('A' for Active; 'I' for Inactive)
REMARK    1  A    between atoms: _1  and  _3
REMARK    2  A    between atoms: _3  and  _4
REMARK    3  A    between atoms: _3  and  _6
REMARK    4  A    between atoms: _9  and  _11
REMARK    5  A    between atoms: _11  and  _12
REMARK    6  A    between atoms: _11  and  _14
REMARK    7  A    between atoms: _14  and  _15
REMARK    8  A    between atoms: _20  and  _21
REMARK    9  A    between atoms: _23  and  _25
REMARK   10  A    between atoms: _25  and  _26
REMARK   11  A    between atoms: _25  and  _28
REMARK   12  A    between atoms: _28  and  _29
REMARK   13  A    between atoms: _32  and  _34
REMARK   14  A    between atoms: _34  and  _35
REMARK   15  A    between atoms: _37  and  _39
REMARK   16  A    between atoms: _39  and  _40
REMARK   17  A    between atoms: _39  and  _42
REMARK   18  A    between atoms: _42  and  _43
REMARK   19  A    between atoms: _49  and  _51
REMARK   20  A    between atoms: _51  and  _52
REMARK   21  A    between atoms: _51  and  _54
REMARK   22  A    between atoms: _54  and  _55
REMARK   23  A    between atoms: _58  and  _60
REMARK   24  A    between atoms: _60  and  _61
REMARK   25  A    between atoms: _60  and  _63
REMARK   26  A    between atoms: _63  and  _64
REMARK   27  A    between atoms: _66  and  _68
REMARK   28  A    between atoms: _68  and  _69
REMARK   29  A    between atoms: _68  and  _71
REMARK   30  A    between atoms: _71  and  _72
REMARK   31  A    between atoms: _74  and  _76
REMARK   32  A    between atoms: _76  and  _77
REMARK   33  A    between atoms: _76  and  _79
REMARK   34  A    between atoms: _79  and  _80
REMARK   35  A    between atoms: _80  and  _81
REMARK   36  A    between atoms: _81  and  _82
REMARK   37  A    between atoms: _91  and  _93
REMARK   38  A    between atoms: _93  and  _94
REMARK   39  A    between atoms: _93  and  _96
REMARK   40  A    between atoms: _96  and  _97
REMARK   41  A    between atoms: _103  and  _105
REMARK   42  A    between atoms: _105  and  _106
REMARK   43  A    between atoms: _105  and  _108
REMARK   44  A    between atoms: _108  and  _109
REMARK   45  A    between atoms: _115  and  _117
REMARK   46  A    between atoms: _117  and  _118
REMARK   47  A    between atoms: _117  and  _120
REMARK   48  A    between atoms: _120  and  _121
REMARK   49  A    between atoms: _121  and  _122
REMARK   50  A    between atoms: _127  and  _129
REMARK   51  A    between atoms: _129  and  _130
REMARK   52  A    between atoms: _129  and  _132
REMARK   53  A    between atoms: _132  and  _133
REMARK   54  A    between atoms: _133  and  _134
REMARK   55  A    between atoms: _137  and  _139
REMARK   56  A    between atoms: _139  and  _140
REMARK   57  A    between atoms: _139  and  _142
REMARK   58  A    between atoms: _145  and  _147
REMARK   59  A    between atoms: _147  and  _148
REMARK   60  A    between atoms: _147  and  _150
REMARK   61  A    between atoms: _150  and  _151
REMARK   62  A    between atoms: _154  and  _156
REMARK   63  A    between atoms: _156  and  _157
REMARK   64  A    between atoms: _156  and  _159
REMARK   65  A    between atoms: _159  and  _160
REMARK   66  A    between atoms: _160  and  _161
REMARK   67  A    between atoms: _161  and  _162
REMARK   68  A    between atoms: _171  and  _173
REMARK   69  A    between atoms: _173  and  _174
REMARK   70  A    between atoms: _176  and  _178
REMARK   71  A    between atoms: _178  and  _179
REMARK   72  A    between atoms: _178  and  _181
REMARK   73  A    between atoms: _181  and  _182
REMARK   74  A    between atoms: _192  and  _194
REMARK   75  A    between atoms: _194  and  _195
REMARK   76  A    between atoms: _194  and  _197
REMARK   77  A    between atoms: _197  and  _198
REMARK   78  A    between atoms: _198  and  _199
REMARK   79  A    between atoms: _202  and  _204
REMARK   80  A    between atoms: _204  and  _205
REMARK   81  A    between atoms: _204  and  _207
REMARK   82  A    between atoms: _207  and  _208
REMARK   83  A    between atoms: _211  and  _213
REMARK   84  A    between atoms: _213  and  _214
REMARK   85  A    between atoms: _213  and  _216
REMARK   86  A    between atoms: _216  and  _217
REMARK   87  A    between atoms: _222  and  _223
REMARK   88  A    between atoms: _225  and  _227
REMARK   89  A    between atoms: _227  and  _228
REMARK   90  A    between atoms: _231  and  _233
REMARK   91  A    between atoms: _233  and  _234
REMARK   92  A    between atoms: _233  and  _236
REMARK   93  A    between atoms: _236  and  _237
REMARK   94  A    between atoms: _242  and  _243
REMARK   95  A    between atoms: _245  and  _247
REMARK   96  A    between atoms: _247  and  _248
REMARK   97  A    between atoms: _247  and  _250
REMARK   98  A    between atoms: _250  and  _251
REMARK   99  A    between atoms: _254  and  _256
REMARK  100  A    between atoms: _256  and  _257
REMARK  101  A    between atoms: _256  and  _259
REMARK  102  A    between atoms: _259  and  _260
REMARK  103  A    between atoms: _263  and  _265
REMARK  104  A    between atoms: _265  and  _266
REMARK  105  A    between atoms: _265  and  _268
REMARK  106  A    between atoms: _268  and  _269
REMARK  107  A    between atoms: _275  and  _277
REMARK  108  A    between atoms: _277  and  _278
REMARK  109  A    between atoms: _277  and  _280
REMARK                            x       y       z     vdW  Elec       q    Type
REMARK                         _______ _______ _______ _____ _____    ______ ____
ROOT
ATOM      1  CA  ILE A   1      63.037 -13.682  -7.311  0.00  0.00    +0.133 C 
ENDROOT
BRANCH   1   2
ATOM      2  N   ILE A   1      63.607 -12.964  -8.450  0.00  0.00    -0.239 NA
ATOM      3  H   ILE A   1      63.030 -12.244  -8.930  0.00  0.00    +0.142 HD
ENDBRANCH   1   2
BRANCH   1   4
ATOM      4  CB  ILE A   1      62.756 -12.667  -6.151  0.00  0.00    +0.023 C 
ATOM      5  CG2 ILE A   1      62.378 -13.378  -4.893  0.00  0.00    +0.002 C 
BRANCH   4   6
ATOM      6  CG1 ILE A   1      63.991 -11.780  -5.926  0.00  0.00    +0.002 C 
ATOM      7  CD1 ILE A   1      63.805 -10.699  -4.904  0.00  0.00    +0.000 C 
ENDBRANCH   4   6
ENDBRANCH   1   4
BRANCH   1   8
ATOM      8  C   ILE A   1      61.769 -14.469  -7.630  0.00  0.00    +0.224 C 
ATOM      9  O   ILE A   1      60.821 -13.926  -8.202  0.00  0.00    -0.287 OA
ENDBRANCH   1   8
TORSDOF 4
REMARK  Name = ../refined-set-2016/1d7j/1d7j_pocket.pdb
REMARK  109 active torsions:
REMARK  status: ('A' for Active; 'I' for Inactive)
REMARK    1  A    between atoms: _1  and  _3
REMARK    2  A    between atoms: _3  and  _4
REMARK    3  A    between atoms: _3  and  _6
REMARK    4  A    between atoms: _9  and  _11
REMARK    5  A    between atoms: _11  and  _12
REMARK    6  A    between atoms: _11  and  _14
REMARK    7  A    between atoms: _14  and  _15
REMARK    8  A    between atoms: _20  and  _21
REMARK    9  A    between atoms: _23  and  _25
REMARK   10  A    between atoms: _25  and  _26
REMARK   11  A    between atoms: _25  and  _28
REMARK   12  A    between atoms: _28  and  _29
REMARK   13  A    between atoms: _32  and  _34
REMARK   14  A    between atoms: _34  and  _35
REMARK   15  A    between atoms: _37  and  _39
REMARK   16  A    between atoms: _39  and  _40
REMARK   17  A    between atoms: _39  and  _42
REMARK   18  A    between atoms: _42  and  _43
REMARK   19  A    between atoms: _49  and  _51
REMARK   20  A    between atoms: _51  and  _52
REMARK   21  A    between atoms: _51  and  _54
REMARK   22  A    between atoms: _54  and  _55
REMARK   23  A    between atoms: _58  and  _60
REMARK   24  A    between atoms: _60  and  _61
REMARK   25  A    between atoms: _60  and  _63
REMARK   26  A    between atoms: _63  and  _64
REMARK   27  A    between atoms: _66  and  _68
REMARK   28  A    between atoms: _68  and  _69
REMARK   29  A    between atoms: _68  and  _71
REMARK   30  A    between atoms: _71  and  _72
REMARK   31  A    between atoms: _74  and  _76
REMARK   32  A    between atoms: _76  and  _77
REMARK   33  A    between atoms: _76  and  _79
REMARK   34  A    between atoms: _79  and  _80
REMARK   35  A    between atoms: _80  and  _81
REMARK   36  A    between atoms: _81  and  _82
REMARK   37  A    between atoms: _91  and  _93
REMARK   38  A    between atoms: _93  and  _94
REMARK   39  A    between atoms: _93  and  _96
REMARK   40  A    between atoms: _96  and  _97
REMARK   41  A    between atoms: _103  and  _105
REMARK   42  A    between atoms: _105  and  _106
REMARK   43  A    between atoms: _105  and  _108
REMARK   44  A    between atoms: _108  and  _109
REMARK   45  A    between atoms: _115  and  _117
REMARK   46  A    between atoms: _117  and  _118
REMARK   47  A    between atoms: _117  and  _120
REMARK   48  A    between atoms: _120  and  _121
REMARK   49  A    between atoms: _121  and  _122
REMARK   50  A    between atoms: _127  and  _129
REMARK   51  A    between atoms: _129  and  _130
REMARK   52  A    between atoms: _129  and  _132
REMARK   53  A    between atoms: _132  and  _133
REMARK   54  A    between atoms: _133  and  _134
REMARK   55  A    between atoms: _137  and  _139
REMARK   56  A    between atoms: _139  and  _140
REMARK   57  A    between atoms: _139  and  _142
REMARK   58  A    between atoms: _145  and  _147
REMARK   59  A    between atoms: _147  and  _148
REMARK   60  A    between atoms: _147  and  _150
REMARK   61  A    between atoms: _150  and  _151
REMARK   62  A    between atoms: _154  and  _156
REMARK   63  A    between atoms: _156  and  _157
REMARK   64  A    between atoms: _156  and  _159
REMARK   65  A    between atoms: _159  and  _160
REMARK   66  A    between atoms: _160  and  _161
REMARK   67  A    between atoms: _161  and  _162
REMARK   68  A    between atoms: _171  and  _173
REMARK   69  A    between atoms: _173  and  _174
REMARK   70  A    between atoms: _176  and  _178
REMARK   71  A    between atoms: _178  and  _179
REMARK   72  A    between atoms: _178  and  _181
REMARK   73  A    between atoms: _181  and  _182
REMARK   74  A    between atoms: _192  and  _194
REMARK   75  A    between atoms: _194  and  _195
REMARK   76  A    between atoms: _194  and  _197
REMARK   77  A    between atoms: _197  and  _198
REMARK   78  A    between atoms: _198  and  _199
REMARK   79  A    between atoms: _202  and  _204
REMARK   80  A    between atoms: _204  and  _205
REMARK   81  A    between atoms: _204  and  _207
REMARK   82  A    between atoms: _207  and  _208
REMARK   83  A    between atoms: _211  and  _213
REMARK   84  A    between atoms: _213  and  _214
REMARK   85  A    between atoms: _213  and  _216
REMARK   86  A    between atoms: _216  and  _217
REMARK   87  A    between atoms: _222  and  _223
REMARK   88  A    between atoms: _225  and  _227
REMARK   89  A    between atoms: _227  and  _228
REMARK   90  A    between atoms: _231  and  _233
REMARK   91  A    between atoms: _233  and  _234
REMARK   92  A    between atoms: _233  and  _236
REMARK   93  A    between atoms: _236  and  _237
REMARK   94  A    between atoms: _242  and  _243
REMARK   95  A    between atoms: _245  and  _247
REMARK   96  A    between atoms: _247  and  _248
REMARK   97  A    between atoms: _247  and  _250
REMARK   98  A    between atoms: _250  and  _251
REMARK   99  A    between atoms: _254  and  _256
REMARK  100  A    between atoms: _256  and  _257
REMARK  101  A    between atoms: _256  and  _259
REMARK  102  A    between atoms: _259  and  _260
REMARK  103  A    between atoms: _263  and  _265
REMARK  104  A    between atoms: _265  and  _266
REMARK  105  A    between atoms: _265  and  _268
REMARK  106  A    between atoms: _268  and  _269
REMARK  107  A    between atoms: _275  and  _277
REMARK  108  A    between atoms: _277  and  _278
REMARK  109  A    between atoms: _277  and  _280
REMARK                            x       y       z     vdW  Elec       q    Type
REMARK                         _______ _______ _______ _____ _____    ______ ____
ROOT
ATOM      1  CA  ALA A   2      58.424 -12.978  -2.713  0.00  0.00    +0.149 C 
ATOM      2  CB  ALA A   2      58.359 -12.527  -4.181  0.00  0.00    +0.031 C 
ENDROOT
BRANCH   1   5
ATOM      3  C   TYR A   1      60.194 -14.517  -2.033  0.00  0.00    +0.239 C 
ATOM      4  O   TYR A   1      60.901 -13.605  -1.588  0.00  0.00    -0.274 OA
ATOM      5  N   ALA A   2      59.016 -14.309  -2.621  0.00  0.00    -0.297 N 
ATOM      6  H   ALA A   2      58.504 -15.119  -3.026  0.00  0.00    +0.150 HD
BRANCH   3   7
ATOM      7  CA  TYR A   1      60.698 -15.956  -2.014  0.00  0.00    +0.149 C 
BRANCH   7   8
ATOM      8  N   TYR A   1      59.760 -16.823  -2.715  0.00  0.00    -0.238 NA
ATOM      9  H   TYR A   1      59.716 -16.787  -3.753  0.00  0.00    +0.142 HD
ENDBRANCH   7   8
BRANCH   7  10
ATOM     10  CB  TYR A   1      62.051 -16.003  -2.708  0.00  0.00    +0.053 C 
BRANCH  10  11
ATOM     11  CG  TYR A   1      62.933 -17.118  -2.249  0.00  0.00    -0.020 A 
ATOM     12  CD2 TYR A   1      64.177 -16.845  -1.679  0.00  0.00    -0.001 A 
ATOM     13  CE2 TYR A   1      65.007 -17.856  -1.259  0.00  0.00    +0.036 A 
ATOM     14  CZ  TYR A   1      64.611 -19.169  -1.399  0.00  0.00    +0.134 A 
ATOM     15  CE1 TYR A   1      63.373 -19.488  -1.958  0.00  0.00    +0.036 A 
ATOM     16  CD1 TYR A   1      62.540 -18.447  -2.385  0.00  0.00    -0.001 A 
BRANCH  14  17
ATOM     17  OH  TYR A   1      65.524 -20.101  -0.982  0.00  0.00    -0.506 OA
ATOM     18  HH  TYR A   1      66.359 -20.000  -1.505  0.00  0.00    +0.292 HD
ENDBRANCH  14  17
ENDBRANCH  10  11
ENDBRANCH   7  10
ENDBRANCH   3   7
ENDBRANCH   1   5
BRANCH   1  19
ATOM     19  C   ALA A   2      57.034 -12.943  -2.053  0.00  0.00    +0.241 C 
ATOM     20  O   ALA A   2      56.927 -13.090  -0.831  0.00  0.00    -0.273 OA
ATOM     21  N   TYR A   3      55.975 -12.823  -2.857  0.00  0.00    -0.298 N 
ATOM     22  H   TYR A   3      56.118 -12.778  -3.886  0.00  0.00    +0.150 HD
BRANCH  21  23
ATOM     23  CA  TYR A   3      54.614 -12.753  -2.317  0.00  0.00    +0.141 C 
BRANCH  23  24
ATOM     24  C   TYR A   3      53.707 -13.983  -2.469  0.00  0.00    +0.227 C 
ATOM     25  O   TYR A   3      52.512 -13.899  -2.184  0.00  0.00    -0.286 OA
ENDBRANCH  23  24
BRANCH  23  26
ATOM     26  CB  TYR A   3      53.915 -11.486  -2.816  0.00  0.00    +0.054 C 
BRANCH  26  27
ATOM     27  CG  TYR A   3      54.658 -10.226  -2.427  0.00  0.00    -0.020 A 
ATOM     28  CD2 TYR A   3      54.455  -9.627  -1.181  0.00  0.00    -0.001 A 
ATOM     29  CE2 TYR A   3      55.132  -8.452  -0.821  0.00  0.00    +0.036 A 
ATOM     30  CZ  TYR A   3      56.014  -7.877  -1.722  0.00  0.00    +0.134 A 
ATOM     31  CE1 TYR A   3      56.238  -8.462  -2.962  0.00  0.00    +0.036 A 
ATOM     32  CD1 TYR A   3      55.561  -9.627  -3.307  0.00  0.00    -0.001 A 
BRANCH  30  33
ATOM     33  OH  TYR A   3      56.622  -6.677  -1.422  0.00  0.00    -0.506 OA
ATOM     34  HH  TYR A   3      57.156  -6.777  -0.594  0.00  0.00    +0.292 HD
ENDBRANCH  30  33
ENDBRANCH  26  27
ENDBRANCH  23  26
ENDBRANCH  21  23
ENDBRANCH   1  19
TORSDOF 12
REMARK  Name = ../refined-set-2016/1d7j/1d7j_pocket.pdb
REMARK  109 active torsions:
REMARK  status: ('A' for Active; 'I' for Inactive)
REMARK    1  A    between atoms: _1  and  _3
REMARK    2  A    between atoms: _3  and  _4
REMARK    3  A    between atoms: _3  and  _6
REMARK    4  A    between atoms: _9  and  _11
REMARK    5  A    between atoms: _11  and  _12
REMARK    6  A    between atoms: _11  and  _14
REMARK    7  A    between atoms: _14  and  _15
REMARK    8  A    between atoms: _20  and  _21
REMARK    9  A    between atoms: _23  and  _25
REMARK   10  A    between atoms: _25  and  _26
REMARK   11  A    between atoms: _25  and  _28
REMARK   12  A    between atoms: _28  and  _29
REMARK   13  A    between atoms: _32  and  _34
REMARK   14  A    between atoms: _34  and  _35
REMARK   15  A    between atoms: _37  and  _39
REMARK   16  A    between atoms: _39  and  _40
REMARK   17  A    between atoms: _39  and  _42
REMARK   18  A    between atoms: _42  and  _43
REMARK   19  A    between atoms: _49  and  _51
REMARK   20  A    between atoms: _51  and  _52
REMARK   21  A    between atoms: _51  and  _54
REMARK   22  A    between atoms: _54  and  _55
REMARK   23  A    between atoms: _58  and  _60
REMARK   24  A    between atoms: _60  and  _61
REMARK   25  A    between atoms: _60  and  _63
REMARK   26  A    between atoms: _63  and  _64
REMARK   27  A    between atoms: _66  and  _68
REMARK   28  A    between atoms: _68  and  _69
REMARK   29  A    between atoms: _68  and  _71
REMARK   30  A    between atoms: _71  and  _72
REMARK   31  A    between atoms: _74  and  _76
REMARK   32  A    between atoms: _76  and  _77
REMARK   33  A    between atoms: _76  and  _79
REMARK   34  A    between atoms: _79  and  _80
REMARK   35  A    between atoms: _80  and  _81
REMARK   36  A    between atoms: _81  and  _82
REMARK   37  A    between atoms: _91  and  _93
REMARK   38  A    between atoms: _93  and  _94
REMARK   39  A    between atoms: _93  and  _96
REMARK   40  A    between atoms: _96  and  _97
REMARK   41  A    between atoms: _103  and  _105
REMARK   42  A    between atoms: _105  and  _106
REMARK   43  A    between atoms: _105  and  _108
REMARK   44  A    between atoms: _108  and  _109
REMARK   45  A    between atoms: _115  and  _117
REMARK   46  A    between atoms: _117  and  _118
REMARK   47  A    between atoms: _117  and  _120
REMARK   48  A    between atoms: _120  and  _121
REMARK   49  A    between atoms: _121  and  _122
REMARK   50  A    between atoms: _127  and  _129
REMARK   51  A    between atoms: _129  and  _130
REMARK   52  A    between atoms: _129  and  _132
REMARK   53  A    between atoms: _132  and  _133
REMARK   54  A    between atoms: _133  and  _134
REMARK   55  A    between atoms: _137  and  _139
REMARK   56  A    between atoms: _139  and  _140
REMARK   57  A    between atoms: _139  and  _142
REMARK   58  A    between atoms: _145  and  _147
REMARK   59  A    between atoms: _147  and  _148
REMARK   60  A    between atoms: _147  and  _150
REMARK   61  A    between atoms: _150  and  _151
REMARK   62  A    between atoms: _154  and  _156
REMARK   63  A    between atoms: _156  and  _157
REMARK   64  A    between atoms: _156  and  _159
REMARK   65  A    between atoms: _159  and  _160
REMARK   66  A    between atoms: _160  and  _161
REMARK   67  A    between atoms: _161  and  _162
REMARK   68  A    between atoms: _171  and  _173
REMARK   69  A    between atoms: _173  and  _174
REMARK   70  A    between atoms: _176  and  _178
REMARK   71  A    between atoms: _178  and  _179
REMARK   72  A    between atoms: _178  and  _181
REMARK   73  A    between atoms: _181  and  _182
REMARK   74  A    between atoms: _192  and  _194
REMARK   75  A    between atoms: _194  and  _195
REMARK   76  A    between atoms: _194  and  _197
REMARK   77  A    between atoms: _197  and  _198
REMARK   78  A    between atoms: _198  and  _199
REMARK   79  A    between atoms: _202  and  _204
REMARK   80  A    between atoms: _204  and  _205
REMARK   81  A    between atoms: _204  and  _207
REMARK   82  A    between atoms: _207  and  _208
REMARK   83  A    between atoms: _211  and  _213
REMARK   84  A    between atoms: _213  and  _214
REMARK   85  A    between atoms: _213  and  _216
REMARK   86  A    between atoms: _216  and  _217
REMARK   87  A    between atoms: _222  and  _223
REMARK   88  A    between atoms: _225  and  _227
REMARK   89  A    between atoms: _227  and  _228
REMARK   90  A    between atoms: _231  and  _233
REMARK   91  A    between atoms: _233  and  _234
REMARK   92  A    between atoms: _233  and  _236
REMARK   93  A    between atoms: _236  and  _237
REMARK   94  A    between atoms: _242  and  _243
REMARK   95  A    between atoms: _245  and  _247
REMARK   96  A    between atoms: _247  and  _248
REMARK   97  A    between atoms: _247  and  _250
REMARK   98  A    between atoms: _250  and  _251
REMARK   99  A    between atoms: _254  and  _256
REMARK  100  A    between atoms: _256  and  _257
REMARK  101  A    between atoms: _256  and  _259
REMARK  102  A    between atoms: _259  and  _260
REMARK  103  A    between atoms: _263  and  _265
REMARK  104  A    between atoms: _265  and  _266
REMARK  105  A    between atoms: _265  and  _268
REMARK  106  A    between atoms: _268  and  _269
REMARK  107  A    between atoms: _275  and  _277
REMARK  108  A    between atoms: _277  and  _278
REMARK  109  A    between atoms: _277  and  _280
REMARK                            x       y       z     vdW  Elec       q    Type
REMARK                         _______ _______ _______ _____ _____    ______ ____
ROOT
ATOM      1  CA  ILE A   1      51.391  -8.140  -7.391  0.00  0.00    +0.133 C 
ENDROOT
BRANCH   1   2
ATOM      2  N   ILE A   1      50.633  -6.940  -7.042  0.00  0.00    -0.239 NA
ATOM      3  H   ILE A   1      50.150  -6.905  -6.122  0.00  0.00    +0.142 HD
ENDBRANCH   1   2
BRANCH   1   4
ATOM      4  CB  ILE A   1      52.347  -8.548  -6.243  0.00  0.00    +0.023 C 
ATOM      5  CG2 ILE A   1      53.185  -9.750  -6.652  0.00  0.00    +0.002 C 
BRANCH   4   6
ATOM      6  CG1 ILE A   1      53.244  -7.377  -5.841  0.00  0.00    +0.002 C 
ATOM      7  CD1 ILE A   1      54.161  -6.942  -6.926  0.00  0.00    +0.000 C 
ENDBRANCH   4   6
ENDBRANCH   1   4
BRANCH   1   8
ATOM      8  C   ILE A   1      50.465  -9.329  -7.628  0.00  0.00    +0.224 C 
ATOM      9  O   ILE A   1      49.833  -9.807  -6.690  0.00  0.00    -0.287 OA
ENDBRANCH   1   8
TORSDOF 4
REMARK  Name = ../refined-set-2016/1d7j/1d7j_pocket.pdb
REMARK  109 active torsions:
REMARK  status: ('A' for Active; 'I' for Inactive)
REMARK    1  A    between atoms: _1  and  _3
REMARK    2  A    between atoms: _3  and  _4
REMARK    3  A    between atoms: _3  and  _6
REMARK    4  A    between atoms: _9  and  _11
REMARK    5  A    between atoms: _11  and  _12
REMARK    6  A    between atoms: _11  and  _14
REMARK    7  A    between atoms: _14  and  _15
REMARK    8  A    between atoms: _20  and  _21
REMARK    9  A    between atoms: _23  and  _25
REMARK   10  A    between atoms: _25  and  _26
REMARK   11  A    between atoms: _25  and  _28
REMARK   12  A    between atoms: _28  and  _29
REMARK   13  A    between atoms: _32  and  _34
REMARK   14  A    between atoms: _34  and  _35
REMARK   15  A    between atoms: _37  and  _39
REMARK   16  A    between atoms: _39  and  _40
REMARK   17  A    between atoms: _39  and  _42
REMARK   18  A    between atoms: _42  and  _43
REMARK   19  A    between atoms: _49  and  _51
REMARK   20  A    between atoms: _51  and  _52
REMARK   21  A    between atoms: _51  and  _54
REMARK   22  A    between atoms: _54  and  _55
REMARK   23  A    between atoms: _58  and  _60
REMARK   24  A    between atoms: _60  and  _61
REMARK   25  A    between atoms: _60  and  _63
REMARK   26  A    between atoms: _63  and  _64
REMARK   27  A    between atoms: _66  and  _68
REMARK   28  A    between atoms: _68  and  _69
REMARK   29  A    between atoms: _68  and  _71
REMARK   30  A    between atoms: _71  and  _72
REMARK   31  A    between atoms: _74  and  _76
REMARK   32  A    between atoms: _76  and  _77
REMARK   33  A    between atoms: _76  and  _79
REMARK   34  A    between atoms: _79  and  _80
REMARK   35  A    between atoms: _80  and  _81
REMARK   36  A    between atoms: _81  and  _82
REMARK   37  A    between atoms: _91  and  _93
REMARK   38  A    between atoms: _93  and  _94
REMARK   39  A    between atoms: _93  and  _96
REMARK   40  A    between atoms: _96  and  _97
REMARK   41  A    between atoms: _103  and  _105
REMARK   42  A    between atoms: _105  and  _106
REMARK   43  A    between atoms: _105  and  _108
REMARK   44  A    between atoms: _108  and  _109
REMARK   45  A    between atoms: _115  and  _117
REMARK   46  A    between atoms: _117  and  _118
REMARK   47  A    between atoms: _117  and  _120
REMARK   48  A    between atoms: _120  and  _121
REMARK   49  A    between atoms: _121  and  _122
REMARK   50  A    between atoms: _127  and  _129
REMARK   51  A    between atoms: _129  and  _130
REMARK   52  A    between atoms: _129  and  _132
REMARK   53  A    between atoms: _132  and  _133
REMARK   54  A    between atoms: _133  and  _134
REMARK   55  A    between atoms: _137  and  _139
REMARK   56  A    between atoms: _139  and  _140
REMARK   57  A    between atoms: _139  and  _142
REMARK   58  A    between atoms: _145  and  _147
REMARK   59  A    between atoms: _147  and  _148
REMARK   60  A    between atoms: _147  and  _150
REMARK   61  A    between atoms: _150  and  _151
REMARK   62  A    between atoms: _154  and  _156
REMARK   63  A    between atoms: _156  and  _157
REMARK   64  A    between atoms: _156  and  _159
REMARK   65  A    between atoms: _159  and  _160
REMARK   66  A    between atoms: _160  and  _161
REMARK   67  A    between atoms: _161  and  _162
REMARK   68  A    between atoms: _171  and  _173
REMARK   69  A    between atoms: _173  and  _174
REMARK   70  A    between atoms: _176  and  _178
REMARK   71  A    between atoms: _178  and  _179
REMARK   72  A    between atoms: _178  and  _181
REMARK   73  A    between atoms: _181  and  _182
REMARK   74  A    between atoms: _192  and  _194
REMARK   75  A    between atoms: _194  and  _195
REMARK   76  A    between atoms: _194  and  _197
REMARK   77  A    between atoms: _197  and  _198
REMARK   78  A    between atoms: _198  and  _199
REMARK   79  A    between atoms: _202  and  _204
REMARK   80  A    between atoms: _204  and  _205
REMARK   81  A    between atoms: _204  and  _207
REMARK   82  A    between atoms: _207  and  _208
REMARK   83  A    between atoms: _211  and  _213
REMARK   84  A    between atoms: _213  and  _214
REMARK   85  A    between atoms: _213  and  _216
REMARK   86  A    between atoms: _216  and  _217
REMARK   87  A    between atoms: _222  and  _223
REMARK   88  A    between atoms: _225  and  _227
REMARK   89  A    between atoms: _227  and  _228
REMARK   90  A    between atoms: _231  and  _233
REMARK   91  A    between atoms: _233  and  _234
REMARK   92  A    between atoms: _233  and  _236
REMARK   93  A    between atoms: _236  and  _237
REMARK   94  A    between atoms: _242  and  _243
REMARK   95  A    between atoms: _245  and  _247
REMARK   96  A    between atoms: _247  and  _248
REMARK   97  A    between atoms: _247  and  _250
REMARK   98  A    between atoms: _250  and  _251
REMARK   99  A    between atoms: _254  and  _256
REMARK  100  A    between atoms: _256  and  _257
REMARK  101  A    between atoms: _256  and  _259
REMARK  102  A    between atoms: _259  and  _260
REMARK  103  A    between atoms: _263  and  _265
REMARK  104  A    between atoms: _265  and  _266
REMARK  105  A    between atoms: _265  and  _268
REMARK  106  A    between atoms: _268  and  _269
REMARK  107  A    between atoms: _275  and  _277
REMARK  108  A    between atoms: _277  and  _278
REMARK  109  A    between atoms: _277  and  _280
REMARK                            x       y       z     vdW  Elec       q    Type
REMARK                         _______ _______ _______ _____ _____    ______ ____
ROOT
ATOM      1  CA  LEU A   1      59.768 -10.345  -9.461  0.00  0.00    +0.133 C 
ENDROOT
BRANCH   1   2
ATOM      2  N   LEU A   1      59.448 -11.765  -9.437  0.00  0.00    -0.239 NA
ATOM      3  H   LEU A   1      59.815 -12.370  -8.675  0.00  0.00    +0.142 HD
ENDBRANCH   1   2
BRANCH   1   4
ATOM      4  C   LEU A   1      61.225 -10.090  -9.827  0.00  0.00    +0.224 C 
ATOM      5  O   LEU A   1      62.096 -10.919  -9.555  0.00  0.00    -0.287 OA
ENDBRANCH   1   4
BRANCH   1   6
ATOM      6  CB  LEU A   1      59.444  -9.708  -8.108  0.00  0.00    +0.025 C 
BRANCH   6   7
ATOM      7  CG  LEU A   1      58.047  -9.971  -7.534  0.00  0.00    +0.002 C 
ATOM      8  CD2 LEU A   1      57.919  -9.293  -6.177  0.00  0.00    +0.000 C 
ATOM      9  CD1 LEU A   1      56.972  -9.487  -8.501  0.00  0.00    +0.000 C 
ENDBRANCH   6   7
ENDBRANCH   1   6
TORSDOF 4
REMARK  Name = ../refined-set-2016/1d7j/1d7j_pocket.pdb
REMARK  109 active torsions:
REMARK  status: ('A' for Active; 'I' for Inactive)
REMARK    1  A    between atoms: _1  and  _3
REMARK    2  A    between atoms: _3  and  _4
REMARK    3  A    between atoms: _3  and  _6
REMARK    4  A    between atoms: _9  and  _11
REMARK    5  A    between atoms: _11  and  _12
REMARK    6  A    between atoms: _11  and  _14
REMARK    7  A    between atoms: _14  and  _15
REMARK    8  A    between atoms: _20  and  _21
REMARK    9  A    between atoms: _23  and  _25
REMARK   10  A    between atoms: _25  and  _26
REMARK   11  A    between atoms: _25  and  _28
REMARK   12  A    between atoms: _28  and  _29
REMARK   13  A    between atoms: _32  and  _34
REMARK   14  A    between atoms: _34  and  _35
REMARK   15  A    between atoms: _37  and  _39
REMARK   16  A    between atoms: _39  and  _40
REMARK   17  A    between atoms: _39  and  _42
REMARK   18  A    between atoms: _42  and  _43
REMARK   19  A    between atoms: _49  and  _51
REMARK   20  A    between atoms: _51  and  _52
REMARK   21  A    between atoms: _51  and  _54
REMARK   22  A    between atoms: _54  and  _55
REMARK   23  A    between atoms: _58  and  _60
REMARK   24  A    between atoms: _60  and  _61
REMARK   25  A    between atoms: _60  and  _63
REMARK   26  A    between atoms: _63  and  _64
REMARK   27  A    between atoms: _66  and  _68
REMARK   28  A    between atoms: _68  and  _69
REMARK   29  A    between atoms: _68  and  _71
REMARK   30  A    between atoms: _71  and  _72
REMARK   31  A    between atoms: _74  and  _76
REMARK   32  A    between atoms: _76  and  _77
REMARK   33  A    between atoms: _76  and  _79
REMARK   34  A    between atoms: _79  and  _80
REMARK   35  A    between atoms: _80  and  _81
REMARK   36  A    between atoms: _81  and  _82
REMARK   37  A    between atoms: _91  and  _93
REMARK   38  A    between atoms: _93  and  _94
REMARK   39  A    between atoms: _93  and  _96
REMARK   40  A    between atoms: _96  and  _97
REMARK   41  A    between atoms: _103  and  _105
REMARK   42  A    between atoms: _105  and  _106
REMARK   43  A    between atoms: _105  and  _108
REMARK   44  A    between atoms: _108  and  _109
REMARK   45  A    between atoms: _115  and  _117
REMARK   46  A    between atoms: _117  and  _118
REMARK   47  A    between atoms: _117  and  _120
REMARK   48  A    between atoms: _120  and  _121
REMARK   49  A    between atoms: _121  and  _122
REMARK   50  A    between atoms: _127  and  _129
REMARK   51  A    between atoms: _129  and  _130
REMARK   52  A    between atoms: _129  and  _132
REMARK   53  A    between atoms: _132  and  _133
REMARK   54  A    between atoms: _133  and  _134
REMARK   55  A    between atoms: _137  and  _139
REMARK   56  A    between atoms: _139  and  _140
REMARK   57  A    between atoms: _139  and  _142
REMARK   58  A    between atoms: _145  and  _147
REMARK   59  A    between atoms: _147  and  _148
REMARK   60  A    between atoms: _147  and  _150
REMARK   61  A    between atoms: _150  and  _151
REMARK   62  A    between atoms: _154  and  _156
REMARK   63  A    between atoms: _156  and  _157
REMARK   64  A    between atoms: _156  and  _159
REMARK   65  A    between atoms: _159  and  _160
REMARK   66  A    between atoms: _160  and  _161
REMARK   67  A    between atoms: _161  and  _162
REMARK   68  A    between atoms: _171  and  _173
REMARK   69  A    between atoms: _173  and  _174
REMARK   70  A    between atoms: _176  and  _178
REMARK   71  A    between atoms: _178  and  _179
REMARK   72  A    between atoms: _178  and  _181
REMARK   73  A    between atoms: _181  and  _182
REMARK   74  A    between atoms: _192  and  _194
REMARK   75  A    between atoms: _194  and  _195
REMARK   76  A    between atoms: _194  and  _197
REMARK   77  A    between atoms: _197  and  _198
REMARK   78  A    between atoms: _198  and  _199
REMARK   79  A    between atoms: _202  and  _204
REMARK   80  A    between atoms: _204  and  _205
REMARK   81  A    between atoms: _204  and  _207
REMARK   82  A    between atoms: _207  and  _208
REMARK   83  A    between atoms: _211  and  _213
REMARK   84  A    between atoms: _213  and  _214
REMARK   85  A    between atoms: _213  and  _216
REMARK   86  A    between atoms: _216  and  _217
REMARK   87  A    between atoms: _222  and  _223
REMARK   88  A    between atoms: _225  and  _227
REMARK   89  A    between atoms: _227  and  _228
REMARK   90  A    between atoms: _231  and  _233
REMARK   91  A    between atoms: _233  and  _234
REMARK   92  A    between atoms: _233  and  _236
REMARK   93  A    between atoms: _236  and  _237
REMARK   94  A    between atoms: _242  and  _243
REMARK   95  A    between atoms: _245  and  _247
REMARK   96  A    between atoms: _247  and  _248
REMARK   97  A    between atoms: _247  and  _250
REMARK   98  A    between atoms: _250  and  _251
REMARK   99  A    between atoms: _254  and  _256
REMARK  100  A    between atoms: _256  and  _257
REMARK  101  A    between atoms: _256  and  _259
REMARK  102  A    between atoms: _259  and  _260
REMARK  103  A    between atoms: _263  and  _265
REMARK  104  A    between atoms: _265  and  _266
REMARK  105  A    between atoms: _265  and  _268
REMARK  106  A    between atoms: _268  and  _269
REMARK  107  A    between atoms: _275  and  _277
REMARK  108  A    between atoms: _277  and  _278
REMARK  109  A    between atoms: _277  and  _280
REMARK                            x       y       z     vdW  Elec       q    Type
REMARK                         _______ _______ _______ _____ _____    ______ ____
ROOT
ATOM      1  CB  PHE A   1      64.636  -6.119  -7.275  0.00  0.00    +0.051 C 
ENDROOT
BRANCH   1   2
ATOM      2  CG  PHE A   1      63.280  -6.237  -6.631  0.00  0.00    -0.020 A 
ATOM      3  CD2 PHE A   1      62.618  -5.109  -6.158  0.00  0.00    -0.004 A 
ATOM      4  CE2 PHE A   1      61.373  -5.216  -5.538  0.00  0.00    -0.000 A 
ATOM      5  CZ  PHE A   1      60.781  -6.464  -5.389  0.00  0.00    -0.000 A 
ATOM      6  CE1 PHE A   1      61.434  -7.597  -5.858  0.00  0.00    -0.000 A 
ATOM      7  CD1 PHE A   1      62.675  -7.479  -6.474  0.00  0.00    -0.004 A 
ENDBRANCH   1   2
BRANCH   1   8
ATOM      8  CA  PHE A   1      64.601  -5.899  -8.793  0.00  0.00    +0.137 C 
BRANCH   8   9
ATOM      9  N   PHE A   1      64.204  -7.123  -9.471  0.00  0.00    -0.239 NA
ATOM     10  H   PHE A   1      64.794  -7.972  -9.363  0.00  0.00    +0.142 HD
ENDBRANCH   8   9
BRANCH   8  11
ATOM     11  C   PHE A   1      65.982  -5.409  -9.213  0.00  0.00    +0.224 C 
ATOM     12  O   PHE A   1      66.932  -6.190  -9.303  0.00  0.00    -0.287 OA
ENDBRANCH   8  11
ENDBRANCH   1   8
TORSDOF 4
REMARK  Name = ../refined-set-2016/1d7j/1d7j_pocket.pdb
REMARK  109 active torsions:
REMARK  status: ('A' for Active; 'I' for Inactive)
REMARK    1  A    between atoms: _1  and  _3
REMARK    2  A    between atoms: _3  and  _4
REMARK    3  A    between atoms: _3  and  _6
REMARK    4  A    between atoms: _9  and  _11
REMARK    5  A    between atoms: _11  and  _12
REMARK    6  A    between atoms: _11  and  _14
REMARK    7  A    between atoms: _14  and  _15
REMARK    8  A    between atoms: _20  and  _21
REMARK    9  A    between atoms: _23  and  _25
REMARK   10  A    between atoms: _25  and  _26
REMARK   11  A    between atoms: _25  and  _28
REMARK   12  A    between atoms: _28  and  _29
REMARK   13  A    between atoms: _32  and  _34
REMARK   14  A    between atoms: _34  and  _35
REMARK   15  A    between atoms: _37  and  _39
REMARK   16  A    between atoms: _39  and  _40
REMARK   17  A    between atoms: _39  and  _42
REMARK   18  A    between atoms: _42  and  _43
REMARK   19  A    between atoms: _49  and  _51
REMARK   20  A    between atoms: _51  and  _52
REMARK   21  A    between atoms: _51  and  _54
REMARK   22  A    between atoms: _54  and  _55
REMARK   23  A    between atoms: _58  and  _60
REMARK   24  A    between atoms: _60  and  _61
REMARK   25  A    between atoms: _60  and  _63
REMARK   26  A    between atoms: _63  and  _64
REMARK   27  A    between atoms: _66  and  _68
REMARK   28  A    between atoms: _68  and  _69
REMARK   29  A    between atoms: _68  and  _71
REMARK   30  A    between atoms: _71  and  _72
REMARK   31  A    between atoms: _74  and  _76
REMARK   32  A    between atoms: _76  and  _77
REMARK   33  A    between atoms: _76  and  _79
REMARK   34  A    between atoms: _79  and  _80
REMARK   35  A    between atoms: _80  and  _81
REMARK   36  A    between atoms: _81  and  _82
REMARK   37  A    between atoms: _91  and  _93
REMARK   38  A    between atoms: _93  and  _94
REMARK   39  A    between atoms: _93  and  _96
REMARK   40  A    between atoms: _96  and  _97
REMARK   41  A    between atoms: _103  and  _105
REMARK   42  A    between atoms: _105  and  _106
REMARK   43  A    between atoms: _105  and  _108
REMARK   44  A    between atoms: _108  and  _109
REMARK   45  A    between atoms: _115  and  _117
REMARK   46  A    between atoms: _117  and  _118
REMARK   47  A    between atoms: _117  and  _120
REMARK   48  A    between atoms: _120  and  _121
REMARK   49  A    between atoms: _121  and  _122
REMARK   50  A    between atoms: _127  and  _129
REMARK   51  A    between atoms: _129  and  _130
REMARK   52  A    between atoms: _129  and  _132
REMARK   53  A    between atoms: _132  and  _133
REMARK   54  A    between atoms: _133  and  _134
REMARK   55  A    between atoms: _137  and  _139
REMARK   56  A    between atoms: _139  and  _140
REMARK   57  A    between atoms: _139  and  _142
REMARK   58  A    between atoms: _145  and  _147
REMARK   59  A    between atoms: _147  and  _148
REMARK   60  A    between atoms: _147  and  _150
REMARK   61  A    between atoms: _150  and  _151
REMARK   62  A    between atoms: _154  and  _156
REMARK   63  A    between atoms: _156  and  _157
REMARK   64  A    between atoms: _156  and  _159
REMARK   65  A    between atoms: _159  and  _160
REMARK   66  A    between atoms: _160  and  _161
REMARK   67  A    between atoms: _161  and  _162
REMARK   68  A    between atoms: _171  and  _173
REMARK   69  A    between atoms: _173  and  _174
REMARK   70  A    between atoms: _176  and  _178
REMARK   71  A    between atoms: _178  and  _179
REMARK   72  A    between atoms: _178  and  _181
REMARK   73  A    between atoms: _181  and  _182
REMARK   74  A    between atoms: _192  and  _194
REMARK   75  A    between atoms: _194  and  _195
REMARK   76  A    between atoms: _194  and  _197
REMARK   77  A    between atoms: _197  and  _198
REMARK   78  A    between atoms: _198  and  _199
REMARK   79  A    between atoms: _202  and  _204
REMARK   80  A    between atoms: _204  and  _205
REMARK   81  A    between atoms: _204  and  _207
REMARK   82  A    between atoms: _207  and  _208
REMARK   83  A    between atoms: _211  and  _213
REMARK   84  A    between atoms: _213  and  _214
REMARK   85  A    between atoms: _213  and  _216
REMARK   86  A    between atoms: _216  and  _217
REMARK   87  A    between atoms: _222  and  _223
REMARK   88  A    between atoms: _225  and  _227
REMARK   89  A    between atoms: _227  and  _228
REMARK   90  A    between atoms: _231  and  _233
REMARK   91  A    between atoms: _233  and  _234
REMARK   92  A    between atoms: _233  and  _236
REMARK   93  A    between atoms: _236  and  _237
REMARK   94  A    between atoms: _242  and  _243
REMARK   95  A    between atoms: _245  and  _247
REMARK   96  A    between atoms: _247  and  _248
REMARK   97  A    between atoms: _247  and  _250
REMARK   98  A    between atoms: _250  and  _251
REMARK   99  A    between atoms: _254  and  _256
REMARK  100  A    between atoms: _256  and  _257
REMARK  101  A    between atoms: _256  and  _259
REMARK  102  A    between atoms: _259  and  _260
REMARK  103  A    between atoms: _263  and  _265
REMARK  104  A    between atoms: _265  and  _266
REMARK  105  A    between atoms: _265  and  _268
REMARK  106  A    between atoms: _268  and  _269
REMARK  107  A    between atoms: _275  and  _277
REMARK  108  A    between atoms: _277  and  _278
REMARK  109  A    between atoms: _277  and  _280
REMARK                            x       y       z     vdW  Elec       q    Type
REMARK                         _______ _______ _______ _____ _____    ______ ____
ROOT
ATOM      1  CA  VAL A   1      69.028  -2.869  -6.476  0.00  0.00    +0.133 C 
ENDROOT
BRANCH   1   2
ATOM      2  CB  VAL A   1      68.832  -4.009  -5.447  0.00  0.00    +0.023 C 
ATOM      3  CG2 VAL A   1      69.231  -3.564  -4.060  0.00  0.00    +0.002 C 
ATOM      4  CG1 VAL A   1      67.398  -4.504  -5.468  0.00  0.00    +0.002 C 
ENDBRANCH   1   2
BRANCH   1   5
ATOM      5  N   VAL A   1      68.694  -3.359  -7.807  0.00  0.00    -0.239 NA
ATOM      6  H   VAL A   1      69.275  -4.108  -8.236  0.00  0.00    +0.142 HD
ENDBRANCH   1   5
BRANCH   1   7
ATOM      7  C   VAL A   1      70.453  -2.362  -6.348  0.00  0.00    +0.224 C 
ATOM      8  O   VAL A   1      71.390  -3.035  -6.772  0.00  0.00    -0.287 OA
ENDBRANCH   1   7
TORSDOF 3
REMARK  Name = ../refined-set-2016/1d7j/1d7j_pocket.pdb
REMARK  109 active torsions:
REMARK  status: ('A' for Active; 'I' for Inactive)
REMARK    1  A    between atoms: _1  and  _3
REMARK    2  A    between atoms: _3  and  _4
REMARK    3  A    between atoms: _3  and  _6
REMARK    4  A    between atoms: _9  and  _11
REMARK    5  A    between atoms: _11  and  _12
REMARK    6  A    between atoms: _11  and  _14
REMARK    7  A    between atoms: _14  and  _15
REMARK    8  A    between atoms: _20  and  _21
REMARK    9  A    between atoms: _23  and  _25
REMARK   10  A    between atoms: _25  and  _26
REMARK   11  A    between atoms: _25  and  _28
REMARK   12  A    between atoms: _28  and  _29
REMARK   13  A    between atoms: _32  and  _34
REMARK   14  A    between atoms: _34  and  _35
REMARK   15  A    between atoms: _37  and  _39
REMARK   16  A    between atoms: _39  and  _40
REMARK   17  A    between atoms: _39  and  _42
REMARK   18  A    between atoms: _42  and  _43
REMARK   19  A    between atoms: _49  and  _51
REMARK   20  A    between atoms: _51  and  _52
REMARK   21  A    between atoms: _51  and  _54
REMARK   22  A    between atoms: _54  and  _55
REMARK   23  A    between atoms: _58  and  _60
REMARK   24  A    between atoms: _60  and  _61
REMARK   25  A    between atoms: _60  and  _63
REMARK   26  A    between atoms: _63  and  _64
REMARK   27  A    between atoms: _66  and  _68
REMARK   28  A    between atoms: _68  and  _69
REMARK   29  A    between atoms: _68  and  _71
REMARK   30  A    between atoms: _71  and  _72
REMARK   31  A    between atoms: _74  and  _76
REMARK   32  A    between atoms: _76  and  _77
REMARK   33  A    between atoms: _76  and  _79
REMARK   34  A    between atoms: _79  and  _80
REMARK   35  A    between atoms: _80  and  _81
REMARK   36  A    between atoms: _81  and  _82
REMARK   37  A    between atoms: _91  and  _93
REMARK   38  A    between atoms: _93  and  _94
REMARK   39  A    between atoms: _93  and  _96
REMARK   40  A    between atoms: _96  and  _97
REMARK   41  A    between atoms: _103  and  _105
REMARK   42  A    between atoms: _105  and  _106
REMARK   43  A    between atoms: _105  and  _108
REMARK   44  A    between atoms: _108  and  _109
REMARK   45  A    between atoms: _115  and  _117
REMARK   46  A    between atoms: _117  and  _118
REMARK   47  A    between atoms: _117  and  _120
REMARK   48  A    between atoms: _120  and  _121
REMARK   49  A    between atoms: _121  and  _122
REMARK   50  A    between atoms: _127  and  _129
REMARK   51  A    between atoms: _129  and  _130
REMARK   52  A    between atoms: _129  and  _132
REMARK   53  A    between atoms: _132  and  _133
REMARK   54  A    between atoms: _133  and  _134
REMARK   55  A    between atoms: _137  and  _139
REMARK   56  A    between atoms: _139  and  _140
REMARK   57  A    between atoms: _139  and  _142
REMARK   58  A    between atoms: _145  and  _147
REMARK   59  A    between atoms: _147  and  _148
REMARK   60  A    between atoms: _147  and  _150
REMARK   61  A    between atoms: _150  and  _151
REMARK   62  A    between atoms: _154  and  _156
REMARK   63  A    between atoms: _156  and  _157
REMARK   64  A    between atoms: _156  and  _159
REMARK   65  A    between atoms: _159  and  _160
REMARK   66  A    between atoms: _160  and  _161
REMARK   67  A    between atoms: _161  and  _162
REMARK   68  A    between atoms: _171  and  _173
REMARK   69  A    between atoms: _173  and  _174
REMARK   70  A    between atoms: _176  and  _178
REMARK   71  A    between atoms: _178  and  _179
REMARK   72  A    between atoms: _178  and  _181
REMARK   73  A    between atoms: _181  and  _182
REMARK   74  A    between atoms: _192  and  _194
REMARK   75  A    between atoms: _194  and  _195
REMARK   76  A    between atoms: _194  and  _197
REMARK   77  A    between atoms: _197  and  _198
REMARK   78  A    between atoms: _198  and  _199
REMARK   79  A    between atoms: _202  and  _204
REMARK   80  A    between atoms: _204  and  _205
REMARK   81  A    between atoms: _204  and  _207
REMARK   82  A    between atoms: _207  and  _208
REMARK   83  A    between atoms: _211  and  _213
REMARK   84  A    between atoms: _213  and  _214
REMARK   85  A    between atoms: _213  and  _216
REMARK   86  A    between atoms: _216  and  _217
REMARK   87  A    between atoms: _222  and  _223
REMARK   88  A    between atoms: _225  and  _227
REMARK   89  A    between atoms: _227  and  _228
REMARK   90  A    between atoms: _231  and  _233
REMARK   91  A    between atoms: _233  and  _234
REMARK   92  A    between atoms: _233  and  _236
REMARK   93  A    between atoms: _236  and  _237
REMARK   94  A    between atoms: _242  and  _243
REMARK   95  A    between atoms: _245  and  _247
REMARK   96  A    between atoms: _247  and  _248
REMARK   97  A    between atoms: _247  and  _250
REMARK   98  A    between atoms: _250  and  _251
REMARK   99  A    between atoms: _254  and  _256
REMARK  100  A    between atoms: _256  and  _257
REMARK  101  A    between atoms: _256  and  _259
REMARK  102  A    between atoms: _259  and  _260
REMARK  103  A    between atoms: _263  and  _265
REMARK  104  A    between atoms: _265  and  _266
REMARK  105  A    between atoms: _265  and  _268
REMARK  106  A    between atoms: _268  and  _269
REMARK  107  A    between atoms: _275  and  _277
REMARK  108  A    between atoms: _277  and  _278
REMARK  109  A    between atoms: _277  and  _280
REMARK                            x       y       z     vdW  Elec       q    Type
REMARK                         _______ _______ _______ _____ _____    ______ ____
ROOT
ATOM      1  O   HOH     1      64.433  -7.451   7.058  0.00  0.00    +0.000 OA
ENDROOT
TORSDOF 0
REMARK  Name = ../refined-set-2016/1d7j/1d7j_pocket.pdb
REMARK  109 active torsions:
REMARK  status: ('A' for Active; 'I' for Inactive)
REMARK    1  A    between atoms: _1  and  _3
REMARK    2  A    between atoms: _3  and  _4
REMARK    3  A    between atoms: _3  and  _6
REMARK    4  A    between atoms: _9  and  _11
REMARK    5  A    between atoms: _11  and  _12
REMARK    6  A    between atoms: _11  and  _14
REMARK    7  A    between atoms: _14  and  _15
REMARK    8  A    between atoms: _20  and  _21
REMARK    9  A    between atoms: _23  and  _25
REMARK   10  A    between atoms: _25  and  _26
REMARK   11  A    between atoms: _25  and  _28
REMARK   12  A    between atoms: _28  and  _29
REMARK   13  A    between atoms: _32  and  _34
REMARK   14  A    between atoms: _34  and  _35
REMARK   15  A    between atoms: _37  and  _39
REMARK   16  A    between atoms: _39  and  _40
REMARK   17  A    between atoms: _39  and  _42
REMARK   18  A    between atoms: _42  and  _43
REMARK   19  A    between atoms: _49  and  _51
REMARK   20  A    between atoms: _51  and  _52
REMARK   21  A    between atoms: _51  and  _54
REMARK   22  A    between atoms: _54  and  _55
REMARK   23  A    between atoms: _58  and  _60
REMARK   24  A    between atoms: _60  and  _61
REMARK   25  A    between atoms: _60  and  _63
REMARK   26  A    between atoms: _63  and  _64
REMARK   27  A    between atoms: _66  and  _68
REMARK   28  A    between atoms: _68  and  _69
REMARK   29  A    between atoms: _68  and  _71
REMARK   30  A    between atoms: _71  and  _72
REMARK   31  A    between atoms: _74  and  _76
REMARK   32  A    between atoms: _76  and  _77
REMARK   33  A    between atoms: _76  and  _79
REMARK   34  A    between atoms: _79  and  _80
REMARK   35  A    between atoms: _80  and  _81
REMARK   36  A    between atoms: _81  and  _82
REMARK   37  A    between atoms: _91  and  _93
REMARK   38  A    between atoms: _93  and  _94
REMARK   39  A    between atoms: _93  and  _96
REMARK   40  A    between atoms: _96  and  _97
REMARK   41  A    between atoms: _103  and  _105
REMARK   42  A    between atoms: _105  and  _106
REMARK   43  A    between atoms: _105  and  _108
REMARK   44  A    between atoms: _108  and  _109
REMARK   45  A    between atoms: _115  and  _117
REMARK   46  A    between atoms: _117  and  _118
REMARK   47  A    between atoms: _117  and  _120
REMARK   48  A    between atoms: _120  and  _121
REMARK   49  A    between atoms: _121  and  _122
REMARK   50  A    between atoms: _127  and  _129
REMARK   51  A    between atoms: _129  and  _130
REMARK   52  A    between atoms: _129  and  _132
REMARK   53  A    between atoms: _132  and  _133
REMARK   54  A    between atoms: _133  and  _134
REMARK   55  A    between atoms: _137  and  _139
REMARK   56  A    between atoms: _139  and  _140
REMARK   57  A    between atoms: _139  and  _142
REMARK   58  A    between atoms: _145  and  _147
REMARK   59  A    between atoms: _147  and  _148
REMARK   60  A    between atoms: _147  and  _150
REMARK   61  A    between atoms: _150  and  _151
REMARK   62  A    between atoms: _154  and  _156
REMARK   63  A    between atoms: _156  and  _157
REMARK   64  A    between atoms: _156  and  _159
REMARK   65  A    between atoms: _159  and  _160
REMARK   66  A    between atoms: _160  and  _161
REMARK   67  A    between atoms: _161  and  _162
REMARK   68  A    between atoms: _171  and  _173
REMARK   69  A    between atoms: _173  and  _174
REMARK   70  A    between atoms: _176  and  _178
REMARK   71  A    between atoms: _178  and  _179
REMARK   72  A    between atoms: _178  and  _181
REMARK   73  A    between atoms: _181  and  _182
REMARK   74  A    between atoms: _192  and  _194
REMARK   75  A    between atoms: _194  and  _195
REMARK   76  A    between atoms: _194  and  _197
REMARK   77  A    between atoms: _197  and  _198
REMARK   78  A    between atoms: _198  and  _199
REMARK   79  A    between atoms: _202  and  _204
REMARK   80  A    between atoms: _204  and  _205
REMARK   81  A    between atoms: _204  and  _207
REMARK   82  A    between atoms: _207  and  _208
REMARK   83  A    between atoms: _211  and  _213
REMARK   84  A    between atoms: _213  and  _214
REMARK   85  A    between atoms: _213  and  _216
REMARK   86  A    between atoms: _216  and  _217
REMARK   87  A    between atoms: _222  and  _223
REMARK   88  A    between atoms: _225  and  _227
REMARK   89  A    between atoms: _227  and  _228
REMARK   90  A    between atoms: _231  and  _233
REMARK   91  A    between atoms: _233  and  _234
REMARK   92  A    between atoms: _233  and  _236
REMARK   93  A    between atoms: _236  and  _237
REMARK   94  A    between atoms: _242  and  _243
REMARK   95  A    between atoms: _245  and  _247
REMARK   96  A    between atoms: _247  and  _248
REMARK   97  A    between atoms: _247  and  _250
REMARK   98  A    between atoms: _250  and  _251
REMARK   99  A    between atoms: _254  and  _256
REMARK  100  A    between atoms: _256  and  _257
REMARK  101  A    between atoms: _256  and  _259
REMARK  102  A    between atoms: _259  and  _260
REMARK  103  A    between atoms: _263  and  _265
REMARK  104  A    between atoms: _265  and  _266
REMARK  105  A    between atoms: _265  and  _268
REMARK  106  A    between atoms: _268  and  _269
REMARK  107  A    between atoms: _275  and  _277
REMARK  108  A    between atoms: _277  and  _278
REMARK  109  A    between atoms: _277  and  _280
REMARK                            x       y       z     vdW  Elec       q    Type
REMARK                         _______ _______ _______ _____ _____    ______ ____
ROOT
ATOM      1  O   HOH     1      58.925 -13.473   1.071  0.00  0.00    +0.000 OA
ENDROOT
TORSDOF 0
REMARK  Name = ../refined-set-2016/1d7j/1d7j_pocket.pdb
REMARK  109 active torsions:
REMARK  status: ('A' for Active; 'I' for Inactive)
REMARK    1  A    between atoms: _1  and  _3
REMARK    2  A    between atoms: _3  and  _4
REMARK    3  A    between atoms: _3  and  _6
REMARK    4  A    between atoms: _9  and  _11
REMARK    5  A    between atoms: _11  and  _12
REMARK    6  A    between atoms: _11  and  _14
REMARK    7  A    between atoms: _14  and  _15
REMARK    8  A    between atoms: _20  and  _21
REMARK    9  A    between atoms: _23  and  _25
REMARK   10  A    between atoms: _25  and  _26
REMARK   11  A    between atoms: _25  and  _28
REMARK   12  A    between atoms: _28  and  _29
REMARK   13  A    between atoms: _32  and  _34
REMARK   14  A    between atoms: _34  and  _35
REMARK   15  A    between atoms: _37  and  _39
REMARK   16  A    between atoms: _39  and  _40
REMARK   17  A    between atoms: _39  and  _42
REMARK   18  A    between atoms: _42  and  _43
REMARK   19  A    between atoms: _49  and  _51
REMARK   20  A    between atoms: _51  and  _52
REMARK   21  A    between atoms: _51  and  _54
REMARK   22  A    between atoms: _54  and  _55
REMARK   23  A    between atoms: _58  and  _60
REMARK   24  A    between atoms: _60  and  _61
REMARK   25  A    between atoms: _60  and  _63
REMARK   26  A    between atoms: _63  and  _64
REMARK   27  A    between atoms: _66  and  _68
REMARK   28  A    between atoms: _68  and  _69
REMARK   29  A    between atoms: _68  and  _71
REMARK   30  A    between atoms: _71  and  _72
REMARK   31  A    between atoms: _74  and  _76
REMARK   32  A    between atoms: _76  and  _77
REMARK   33  A    between atoms: _76  and  _79
REMARK   34  A    between atoms: _79  and  _80
REMARK   35  A    between atoms: _80  and  _81
REMARK   36  A    between atoms: _81  and  _82
REMARK   37  A    between atoms: _91  and  _93
REMARK   38  A    between atoms: _93  and  _94
REMARK   39  A    between atoms: _93  and  _96
REMARK   40  A    between atoms: _96  and  _97
REMARK   41  A    between atoms: _103  and  _105
REMARK   42  A    between atoms: _105  and  _106
REMARK   43  A    between atoms: _105  and  _108
REMARK   44  A    between atoms: _108  and  _109
REMARK   45  A    between atoms: _115  and  _117
REMARK   46  A    between atoms: _117  and  _118
REMARK   47  A    between atoms: _117  and  _120
REMARK   48  A    between atoms: _120  and  _121
REMARK   49  A    between atoms: _121  and  _122
REMARK   50  A    between atoms: _127  and  _129
REMARK   51  A    between atoms: _129  and  _130
REMARK   52  A    between atoms: _129  and  _132
REMARK   53  A    between atoms: _132  and  _133
REMARK   54  A    between atoms: _133  and  _134
REMARK   55  A    between atoms: _137  and  _139
REMARK   56  A    between atoms: _139  and  _140
REMARK   57  A    between atoms: _139  and  _142
REMARK   58  A    between atoms: _145  and  _147
REMARK   59  A    between atoms: _147  and  _148
REMARK   60  A    between atoms: _147  and  _150
REMARK   61  A    between atoms: _150  and  _151
REMARK   62  A    between atoms: _154  and  _156
REMARK   63  A    between atoms: _156  and  _157
REMARK   64  A    between atoms: _156  and  _159
REMARK   65  A    between atoms: _159  and  _160
REMARK   66  A    between atoms: _160  and  _161
REMARK   67  A    between atoms: _161  and  _162
REMARK   68  A    between atoms: _171  and  _173
REMARK   69  A    between atoms: _173  and  _174
REMARK   70  A    between atoms: _176  and  _178
REMARK   71  A    between atoms: _178  and  _179
REMARK   72  A    between atoms: _178  and  _181
REMARK   73  A    between atoms: _181  and  _182
REMARK   74  A    between atoms: _192  and  _194
REMARK   75  A    between atoms: _194  and  _195
REMARK   76  A    between atoms: _194  and  _197
REMARK   77  A    between atoms: _197  and  _198
REMARK   78  A    between atoms: _198  and  _199
REMARK   79  A    between atoms: _202  and  _204
REMARK   80  A    between atoms: _204  and  _205
REMARK   81  A    between atoms: _204  and  _207
REMARK   82  A    between atoms: _207  and  _208
REMARK   83  A    between atoms: _211  and  _213
REMARK   84  A    between atoms: _213  and  _214
REMARK   85  A    between atoms: _213  and  _216
REMARK   86  A    between atoms: _216  and  _217
REMARK   87  A    between atoms: _222  and  _223
REMARK   88  A    between atoms: _225  and  _227
REMARK   89  A    between atoms: _227  and  _228
REMARK   90  A    between atoms: _231  and  _233
REMARK   91  A    between atoms: _233  and  _234
REMARK   92  A    between atoms: _233  and  _236
REMARK   93  A    between atoms: _236  and  _237
REMARK   94  A    between atoms: _242  and  _243
REMARK   95  A    between atoms: _245  and  _247
REMARK   96  A    between atoms: _247  and  _248
REMARK   97  A    between atoms: _247  and  _250
REMARK   98  A    between atoms: _250  and  _251
REMARK   99  A    between atoms: _254  and  _256
REMARK  100  A    between atoms: _256  and  _257
REMARK  101  A    between atoms: _256  and  _259
REMARK  102  A    between atoms: _259  and  _260
REMARK  103  A    between atoms: _263  and  _265
REMARK  104  A    between atoms: _265  and  _266
REMARK  105  A    between atoms: _265  and  _268
REMARK  106  A    between atoms: _268  and  _269
REMARK  107  A    between atoms: _275  and  _277
REMARK  108  A    between atoms: _277  and  _278
REMARK  109  A    between atoms: _277  and  _280
REMARK                            x       y       z     vdW  Elec       q    Type
REMARK                         _______ _______ _______ _____ _____    ______ ____
ROOT
ATOM      1  O   HOH     1      61.992 -12.552   5.254  0.00  0.00    +0.000 OA
ENDROOT
TORSDOF 0
REMARK  Name = ../refined-set-2016/1d7j/1d7j_pocket.pdb
REMARK  109 active torsions:
REMARK  status: ('A' for Active; 'I' for Inactive)
REMARK    1  A    between atoms: _1  and  _3
REMARK    2  A    between atoms: _3  and  _4
REMARK    3  A    between atoms: _3  and  _6
REMARK    4  A    between atoms: _9  and  _11
REMARK    5  A    between atoms: _11  and  _12
REMARK    6  A    between atoms: _11  and  _14
REMARK    7  A    between atoms: _14  and  _15
REMARK    8  A    between atoms: _20  and  _21
REMARK    9  A    between atoms: _23  and  _25
REMARK   10  A    between atoms: _25  and  _26
REMARK   11  A    between atoms: _25  and  _28
REMARK   12  A    between atoms: _28  and  _29
REMARK   13  A    between atoms: _32  and  _34
REMARK   14  A    between atoms: _34  and  _35
REMARK   15  A    between atoms: _37  and  _39
REMARK   16  A    between atoms: _39  and  _40
REMARK   17  A    between atoms: _39  and  _42
REMARK   18  A    between atoms: _42  and  _43
REMARK   19  A    between atoms: _49  and  _51
REMARK   20  A    between atoms: _51  and  _52
REMARK   21  A    between atoms: _51  and  _54
REMARK   22  A    between atoms: _54  and  _55
REMARK   23  A    between atoms: _58  and  _60
REMARK   24  A    between atoms: _60  and  _61
REMARK   25  A    between atoms: _60  and  _63
REMARK   26  A    between atoms: _63  and  _64
REMARK   27  A    between atoms: _66  and  _68
REMARK   28  A    between atoms: _68  and  _69
REMARK   29  A    between atoms: _68  and  _71
REMARK   30  A    between atoms: _71  and  _72
REMARK   31  A    between atoms: _74  and  _76
REMARK   32  A    between atoms: _76  and  _77
REMARK   33  A    between atoms: _76  and  _79
REMARK   34  A    between atoms: _79  and  _80
REMARK   35  A    between atoms: _80  and  _81
REMARK   36  A    between atoms: _81  and  _82
REMARK   37  A    between atoms: _91  and  _93
REMARK   38  A    between atoms: _93  and  _94
REMARK   39  A    between atoms: _93  and  _96
REMARK   40  A    between atoms: _96  and  _97
REMARK   41  A    between atoms: _103  and  _105
REMARK   42  A    between atoms: _105  and  _106
REMARK   43  A    between atoms: _105  and  _108
REMARK   44  A    between atoms: _108  and  _109
REMARK   45  A    between atoms: _115  and  _117
REMARK   46  A    between atoms: _117  and  _118
REMARK   47  A    between atoms: _117  and  _120
REMARK   48  A    between atoms: _120  and  _121
REMARK   49  A    between atoms: _121  and  _122
REMARK   50  A    between atoms: _127  and  _129
REMARK   51  A    between atoms: _129  and  _130
REMARK   52  A    between atoms: _129  and  _132
REMARK   53  A    between atoms: _132  and  _133
REMARK   54  A    between atoms: _133  and  _134
REMARK   55  A    between atoms: _137  and  _139
REMARK   56  A    between atoms: _139  and  _140
REMARK   57  A    between atoms: _139  and  _142
REMARK   58  A    between atoms: _145  and  _147
REMARK   59  A    between atoms: _147  and  _148
REMARK   60  A    between atoms: _147  and  _150
REMARK   61  A    between atoms: _150  and  _151
REMARK   62  A    between atoms: _154  and  _156
REMARK   63  A    between atoms: _156  and  _157
REMARK   64  A    between atoms: _156  and  _159
REMARK   65  A    between atoms: _159  and  _160
REMARK   66  A    between atoms: _160  and  _161
REMARK   67  A    between atoms: _161  and  _162
REMARK   68  A    between atoms: _171  and  _173
REMARK   69  A    between atoms: _173  and  _174
REMARK   70  A    between atoms: _176  and  _178
REMARK   71  A    between atoms: _178  and  _179
REMARK   72  A    between atoms: _178  and  _181
REMARK   73  A    between atoms: _181  and  _182
REMARK   74  A    between atoms: _192  and  _194
REMARK   75  A    between atoms: _194  and  _195
REMARK   76  A    between atoms: _194  and  _197
REMARK   77  A    between atoms: _197  and  _198
REMARK   78  A    between atoms: _198  and  _199
REMARK   79  A    between atoms: _202  and  _204
REMARK   80  A    between atoms: _204  and  _205
REMARK   81  A    between atoms: _204  and  _207
REMARK   82  A    between atoms: _207  and  _208
REMARK   83  A    between atoms: _211  and  _213
REMARK   84  A    between atoms: _213  and  _214
REMARK   85  A    between atoms: _213  and  _216
REMARK   86  A    between atoms: _216  and  _217
REMARK   87  A    between atoms: _222  and  _223
REMARK   88  A    between atoms: _225  and  _227
REMARK   89  A    between atoms: _227  and  _228
REMARK   90  A    between atoms: _231  and  _233
REMARK   91  A    between atoms: _233  and  _234
REMARK   92  A    between atoms: _233  and  _236
REMARK   93  A    between atoms: _236  and  _237
REMARK   94  A    between atoms: _242  and  _243
REMARK   95  A    between atoms: _245  and  _247
REMARK   96  A    between atoms: _247  and  _248
REMARK   97  A    between atoms: _247  and  _250
REMARK   98  A    between atoms: _250  and  _251
REMARK   99  A    between atoms: _254  and  _256
REMARK  100  A    between atoms: _256  and  _257
REMARK  101  A    between atoms: _256  and  _259
REMARK  102  A    between atoms: _259  and  _260
REMARK  103  A    between atoms: _263  and  _265
REMARK  104  A    between atoms: _265  and  _266
REMARK  105  A    between atoms: _265  and  _268
REMARK  106  A    between atoms: _268  and  _269
REMARK  107  A    between atoms: _275  and  _277
REMARK  108  A    between atoms: _277  and  _278
REMARK  109  A    between atoms: _277  and  _280
REMARK                            x       y       z     vdW  Elec       q    Type
REMARK                         _______ _______ _______ _____ _____    ______ ____
ROOT
ATOM      1  O   HOH     1      56.021  -3.807  -2.754  0.00  0.00    +0.000 OA
ENDROOT
TORSDOF 0
REMARK  Name = ../refined-set-2016/1d7j/1d7j_pocket.pdb
REMARK  109 active torsions:
REMARK  status: ('A' for Active; 'I' for Inactive)
REMARK    1  A    between atoms: _1  and  _3
REMARK    2  A    between atoms: _3  and  _4
REMARK    3  A    between atoms: _3  and  _6
REMARK    4  A    between atoms: _9  and  _11
REMARK    5  A    between atoms: _11  and  _12
REMARK    6  A    between atoms: _11  and  _14
REMARK    7  A    between atoms: _14  and  _15
REMARK    8  A    between atoms: _20  and  _21
REMARK    9  A    between atoms: _23  and  _25
REMARK   10  A    between atoms: _25  and  _26
REMARK   11  A    between atoms: _25  and  _28
REMARK   12  A    between atoms: _28  and  _29
REMARK   13  A    between atoms: _32  and  _34
REMARK   14  A    between atoms: _34  and  _35
REMARK   15  A    between atoms: _37  and  _39
REMARK   16  A    between atoms: _39  and  _40
REMARK   17  A    between atoms: _39  and  _42
REMARK   18  A    between atoms: _42  and  _43
REMARK   19  A    between atoms: _49  and  _51
REMARK   20  A    between atoms: _51  and  _52
REMARK   21  A    between atoms: _51  and  _54
REMARK   22  A    between atoms: _54  and  _55
REMARK   23  A    between atoms: _58  and  _60
REMARK   24  A    between atoms: _60  and  _61
REMARK   25  A    between atoms: _60  and  _63
REMARK   26  A    between atoms: _63  and  _64
REMARK   27  A    between atoms: _66  and  _68
REMARK   28  A    between atoms: _68  and  _69
REMARK   29  A    between atoms: _68  and  _71
REMARK   30  A    between atoms: _71  and  _72
REMARK   31  A    between atoms: _74  and  _76
REMARK   32  A    between atoms: _76  and  _77
REMARK   33  A    between atoms: _76  and  _79
REMARK   34  A    between atoms: _79  and  _80
REMARK   35  A    between atoms: _80  and  _81
REMARK   36  A    between atoms: _81  and  _82
REMARK   37  A    between atoms: _91  and  _93
REMARK   38  A    between atoms: _93  and  _94
REMARK   39  A    between atoms: _93  and  _96
REMARK   40  A    between atoms: _96  and  _97
REMARK   41  A    between atoms: _103  and  _105
REMARK   42  A    between atoms: _105  and  _106
REMARK   43  A    between atoms: _105  and  _108
REMARK   44  A    between atoms: _108  and  _109
REMARK   45  A    between atoms: _115  and  _117
REMARK   46  A    between atoms: _117  and  _118
REMARK   47  A    between atoms: _117  and  _120
REMARK   48  A    between atoms: _120  and  _121
REMARK   49  A    between atoms: _121  and  _122
REMARK   50  A    between atoms: _127  and  _129
REMARK   51  A    between atoms: _129  and  _130
REMARK   52  A    between atoms: _129  and  _132
REMARK   53  A    between atoms: _132  and  _133
REMARK   54  A    between atoms: _133  and  _134
REMARK   55  A    between atoms: _137  and  _139
REMARK   56  A    between atoms: _139  and  _140
REMARK   57  A    between atoms: _139  and  _142
REMARK   58  A    between atoms: _145  and  _147
REMARK   59  A    between atoms: _147  and  _148
REMARK   60  A    between atoms: _147  and  _150
REMARK   61  A    between atoms: _150  and  _151
REMARK   62  A    between atoms: _154  and  _156
REMARK   63  A    between atoms: _156  and  _157
REMARK   64  A    between atoms: _156  and  _159
REMARK   65  A    between atoms: _159  and  _160
REMARK   66  A    between atoms: _160  and  _161
REMARK   67  A    between atoms: _161  and  _162
REMARK   68  A    between atoms: _171  and  _173
REMARK   69  A    between atoms: _173  and  _174
REMARK   70  A    between atoms: _176  and  _178
REMARK   71  A    between atoms: _178  and  _179
REMARK   72  A    between atoms: _178  and  _181
REMARK   73  A    between atoms: _181  and  _182
REMARK   74  A    between atoms: _192  and  _194
REMARK   75  A    between atoms: _194  and  _195
REMARK   76  A    between atoms: _194  and  _197
REMARK   77  A    between atoms: _197  and  _198
REMARK   78  A    between atoms: _198  and  _199
REMARK   79  A    between atoms: _202  and  _204
REMARK   80  A    between atoms: _204  and  _205
REMARK   81  A    between atoms: _204  and  _207
REMARK   82  A    between atoms: _207  and  _208
REMARK   83  A    between atoms: _211  and  _213
REMARK   84  A    between atoms: _213  and  _214
REMARK   85  A    between atoms: _213  and  _216
REMARK   86  A    between atoms: _216  and  _217
REMARK   87  A    between atoms: _222  and  _223
REMARK   88  A    between atoms: _225  and  _227
REMARK   89  A    between atoms: _227  and  _228
REMARK   90  A    between atoms: _231  and  _233
REMARK   91  A    between atoms: _233  and  _234
REMARK   92  A    between atoms: _233  and  _236
REMARK   93  A    between atoms: _236  and  _237
REMARK   94  A    between atoms: _242  and  _243
REMARK   95  A    between atoms: _245  and  _247
REMARK   96  A    between atoms: _247  and  _248
REMARK   97  A    between atoms: _247  and  _250
REMARK   98  A    between atoms: _250  and  _251
REMARK   99  A    between atoms: _254  and  _256
REMARK  100  A    between atoms: _256  and  _257
REMARK  101  A    between atoms: _256  and  _259
REMARK  102  A    between atoms: _259  and  _260
REMARK  103  A    between atoms: _263  and  _265
REMARK  104  A    between atoms: _265  and  _266
REMARK  105  A    between atoms: _265  and  _268
REMARK  106  A    between atoms: _268  and  _269
REMARK  107  A    between atoms: _275  and  _277
REMARK  108  A    between atoms: _277  and  _278
REMARK  109  A    between atoms: _277  and  _280
REMARK                            x       y       z     vdW  Elec       q    Type
REMARK                         _______ _______ _______ _____ _____    ______ ____
ROOT
ATOM      1  O   HOH     1      56.891  -6.499   1.489  0.00  0.00    +0.000 OA
ENDROOT
TORSDOF 0
REMARK  Name = ../refined-set-2016/1d7j/1d7j_pocket.pdb
REMARK  109 active torsions:
REMARK  status: ('A' for Active; 'I' for Inactive)
REMARK    1  A    between atoms: _1  and  _3
REMARK    2  A    between atoms: _3  and  _4
REMARK    3  A    between atoms: _3  and  _6
REMARK    4  A    between atoms: _9  and  _11
REMARK    5  A    between atoms: _11  and  _12
REMARK    6  A    between atoms: _11  and  _14
REMARK    7  A    between atoms: _14  and  _15
REMARK    8  A    between atoms: _20  and  _21
REMARK    9  A    between atoms: _23  and  _25
REMARK   10  A    between atoms: _25  and  _26
REMARK   11  A    between atoms: _25  and  _28
REMARK   12  A    between atoms: _28  and  _29
REMARK   13  A    between atoms: _32  and  _34
REMARK   14  A    between atoms: _34  and  _35
REMARK   15  A    between atoms: _37  and  _39
REMARK   16  A    between atoms: _39  and  _40
REMARK   17  A    between atoms: _39  and  _42
REMARK   18  A    between atoms: _42  and  _43
REMARK   19  A    between atoms: _49  and  _51
REMARK   20  A    between atoms: _51  and  _52
REMARK   21  A    between atoms: _51  and  _54
REMARK   22  A    between atoms: _54  and  _55
REMARK   23  A    between atoms: _58  and  _60
REMARK   24  A    between atoms: _60  and  _61
REMARK   25  A    between atoms: _60  and  _63
REMARK   26  A    between atoms: _63  and  _64
REMARK   27  A    between atoms: _66  and  _68
REMARK   28  A    between atoms: _68  and  _69
REMARK   29  A    between atoms: _68  and  _71
REMARK   30  A    between atoms: _71  and  _72
REMARK   31  A    between atoms: _74  and  _76
REMARK   32  A    between atoms: _76  and  _77
REMARK   33  A    between atoms: _76  and  _79
REMARK   34  A    between atoms: _79  and  _80
REMARK   35  A    between atoms: _80  and  _81
REMARK   36  A    between atoms: _81  and  _82
REMARK   37  A    between atoms: _91  and  _93
REMARK   38  A    between atoms: _93  and  _94
REMARK   39  A    between atoms: _93  and  _96
REMARK   40  A    between atoms: _96  and  _97
REMARK   41  A    between atoms: _103  and  _105
REMARK   42  A    between atoms: _105  and  _106
REMARK   43  A    between atoms: _105  and  _108
REMARK   44  A    between atoms: _108  and  _109
REMARK   45  A    between atoms: _115  and  _117
REMARK   46  A    between atoms: _117  and  _118
REMARK   47  A    between atoms: _117  and  _120
REMARK   48  A    between atoms: _120  and  _121
REMARK   49  A    between atoms: _121  and  _122
REMARK   50  A    between atoms: _127  and  _129
REMARK   51  A    between atoms: _129  and  _130
REMARK   52  A    between atoms: _129  and  _132
REMARK   53  A    between atoms: _132  and  _133
REMARK   54  A    between atoms: _133  and  _134
REMARK   55  A    between atoms: _137  and  _139
REMARK   56  A    between atoms: _139  and  _140
REMARK   57  A    between atoms: _139  and  _142
REMARK   58  A    between atoms: _145  and  _147
REMARK   59  A    between atoms: _147  and  _148
REMARK   60  A    between atoms: _147  and  _150
REMARK   61  A    between atoms: _150  and  _151
REMARK   62  A    between atoms: _154  and  _156
REMARK   63  A    between atoms: _156  and  _157
REMARK   64  A    between atoms: _156  and  _159
REMARK   65  A    between atoms: _159  and  _160
REMARK   66  A    between atoms: _160  and  _161
REMARK   67  A    between atoms: _161  and  _162
REMARK   68  A    between atoms: _171  and  _173
REMARK   69  A    between atoms: _173  and  _174
REMARK   70  A    between atoms: _176  and  _178
REMARK   71  A    between atoms: _178  and  _179
REMARK   72  A    between atoms: _178  and  _181
REMARK   73  A    between atoms: _181  and  _182
REMARK   74  A    between atoms: _192  and  _194
REMARK   75  A    between atoms: _194  and  _195
REMARK   76  A    between atoms: _194  and  _197
REMARK   77  A    between atoms: _197  and  _198
REMARK   78  A    between atoms: _198  and  _199
REMARK   79  A    between atoms: _202  and  _204
REMARK   80  A    between atoms: _204  and  _205
REMARK   81  A    between atoms: _204  and  _207
REMARK   82  A    between atoms: _207  and  _208
REMARK   83  A    between atoms: _211  and  _213
REMARK   84  A    between atoms: _213  and  _214
REMARK   85  A    between atoms: _213  and  _216
REMARK   86  A    between atoms: _216  and  _217
REMARK   87  A    between atoms: _222  and  _223
REMARK   88  A    between atoms: _225  and  _227
REMARK   89  A    between atoms: _227  and  _228
REMARK   90  A    between atoms: _231  and  _233
REMARK   91  A    between atoms: _233  and  _234
REMARK   92  A    between atoms: _233  and  _236
REMARK   93  A    between atoms: _236  and  _237
REMARK   94  A    between atoms: _242  and  _243
REMARK   95  A    between atoms: _245  and  _247
REMARK   96  A    between atoms: _247  and  _248
REMARK   97  A    between atoms: _247  and  _250
REMARK   98  A    between atoms: _250  and  _251
REMARK   99  A    between atoms: _254  and  _256
REMARK  100  A    between atoms: _256  and  _257
REMARK  101  A    between atoms: _256  and  _259
REMARK  102  A    between atoms: _259  and  _260
REMARK  103  A    between atoms: _263  and  _265
REMARK  104  A    between atoms: _265  and  _266
REMARK  105  A    between atoms: _265  and  _268
REMARK  106  A    between atoms: _268  and  _269
REMARK  107  A    between atoms: _275  and  _277
REMARK  108  A    between atoms: _277  and  _278
REMARK  109  A    between atoms: _277  and  _280
REMARK                            x       y       z     vdW  Elec       q    Type
REMARK                         _______ _______ _______ _____ _____    ______ ____
ROOT
ATOM      1  O   HOH     1      60.020  -2.637   5.572  0.00  0.00    +0.000 OA
ENDROOT
TORSDOF 0
REMARK  Name = ../refined-set-2016/1d7j/1d7j_pocket.pdb
REMARK  109 active torsions:
REMARK  status: ('A' for Active; 'I' for Inactive)
REMARK    1  A    between atoms: _1  and  _3
REMARK    2  A    between atoms: _3  and  _4
REMARK    3  A    between atoms: _3  and  _6
REMARK    4  A    between atoms: _9  and  _11
REMARK    5  A    between atoms: _11  and  _12
REMARK    6  A    between atoms: _11  and  _14
REMARK    7  A    between atoms: _14  and  _15
REMARK    8  A    between atoms: _20  and  _21
REMARK    9  A    between atoms: _23  and  _25
REMARK   10  A    between atoms: _25  and  _26
REMARK   11  A    between atoms: _25  and  _28
REMARK   12  A    between atoms: _28  and  _29
REMARK   13  A    between atoms: _32  and  _34
REMARK   14  A    between atoms: _34  and  _35
REMARK   15  A    between atoms: _37  and  _39
REMARK   16  A    between atoms: _39  and  _40
REMARK   17  A    between atoms: _39  and  _42
REMARK   18  A    between atoms: _42  and  _43
REMARK   19  A    between atoms: _49  and  _51
REMARK   20  A    between atoms: _51  and  _52
REMARK   21  A    between atoms: _51  and  _54
REMARK   22  A    between atoms: _54  and  _55
REMARK   23  A    between atoms: _58  and  _60
REMARK   24  A    between atoms: _60  and  _61
REMARK   25  A    between atoms: _60  and  _63
REMARK   26  A    between atoms: _63  and  _64
REMARK   27  A    between atoms: _66  and  _68
REMARK   28  A    between atoms: _68  and  _69
REMARK   29  A    between atoms: _68  and  _71
REMARK   30  A    between atoms: _71  and  _72
REMARK   31  A    between atoms: _74  and  _76
REMARK   32  A    between atoms: _76  and  _77
REMARK   33  A    between atoms: _76  and  _79
REMARK   34  A    between atoms: _79  and  _80
REMARK   35  A    between atoms: _80  and  _81
REMARK   36  A    between atoms: _81  and  _82
REMARK   37  A    between atoms: _91  and  _93
REMARK   38  A    between atoms: _93  and  _94
REMARK   39  A    between atoms: _93  and  _96
REMARK   40  A    between atoms: _96  and  _97
REMARK   41  A    between atoms: _103  and  _105
REMARK   42  A    between atoms: _105  and  _106
REMARK   43  A    between atoms: _105  and  _108
REMARK   44  A    between atoms: _108  and  _109
REMARK   45  A    between atoms: _115  and  _117
REMARK   46  A    between atoms: _117  and  _118
REMARK   47  A    between atoms: _117  and  _120
REMARK   48  A    between atoms: _120  and  _121
REMARK   49  A    between atoms: _121  and  _122
REMARK   50  A    between atoms: _127  and  _129
REMARK   51  A    between atoms: _129  and  _130
REMARK   52  A    between atoms: _129  and  _132
REMARK   53  A    between atoms: _132  and  _133
REMARK   54  A    between atoms: _133  and  _134
REMARK   55  A    between atoms: _137  and  _139
REMARK   56  A    between atoms: _139  and  _140
REMARK   57  A    between atoms: _139  and  _142
REMARK   58  A    between atoms: _145  and  _147
REMARK   59  A    between atoms: _147  and  _148
REMARK   60  A    between atoms: _147  and  _150
REMARK   61  A    between atoms: _150  and  _151
REMARK   62  A    between atoms: _154  and  _156
REMARK   63  A    between atoms: _156  and  _157
REMARK   64  A    between atoms: _156  and  _159
REMARK   65  A    between atoms: _159  and  _160
REMARK   66  A    between atoms: _160  and  _161
REMARK   67  A    between atoms: _161  and  _162
REMARK   68  A    between atoms: _171  and  _173
REMARK   69  A    between atoms: _173  and  _174
REMARK   70  A    between atoms: _176  and  _178
REMARK   71  A    between atoms: _178  and  _179
REMARK   72  A    between atoms: _178  and  _181
REMARK   73  A    between atoms: _181  and  _182
REMARK   74  A    between atoms: _192  and  _194
REMARK   75  A    between atoms: _194  and  _195
REMARK   76  A    between atoms: _194  and  _197
REMARK   77  A    between atoms: _197  and  _198
REMARK   78  A    between atoms: _198  and  _199
REMARK   79  A    between atoms: _202  and  _204
REMARK   80  A    between atoms: _204  and  _205
REMARK   81  A    between atoms: _204  and  _207
REMARK   82  A    between atoms: _207  and  _208
REMARK   83  A    between atoms: _211  and  _213
REMARK   84  A    between atoms: _213  and  _214
REMARK   85  A    between atoms: _213  and  _216
REMARK   86  A    between atoms: _216  and  _217
REMARK   87  A    between atoms: _222  and  _223
REMARK   88  A    between atoms: _225  and  _227
REMARK   89  A    between atoms: _227  and  _228
REMARK   90  A    between atoms: _231  and  _233
REMARK   91  A    between atoms: _233  and  _234
REMARK   92  A    between atoms: _233  and  _236
REMARK   93  A    between atoms: _236  and  _237
REMARK   94  A    between atoms: _242  and  _243
REMARK   95  A    between atoms: _245  and  _247
REMARK   96  A    between atoms: _247  and  _248
REMARK   97  A    between atoms: _247  and  _250
REMARK   98  A    between atoms: _250  and  _251
REMARK   99  A    between atoms: _254  and  _256
REMARK  100  A    between atoms: _256  and  _257
REMARK  101  A    between atoms: _256  and  _259
REMARK  102  A    between atoms: _259  and  _260
REMARK  103  A    between atoms: _263  and  _265
REMARK  104  A    between atoms: _265  and  _266
REMARK  105  A    between atoms: _265  and  _268
REMARK  106  A    between atoms: _268  and  _269
REMARK  107  A    between atoms: _275  and  _277
REMARK  108  A    between atoms: _277  and  _278
REMARK  109  A    between atoms: _277  and  _280
REMARK                            x       y       z     vdW  Elec       q    Type
REMARK                         _______ _______ _______ _____ _____    ______ ____
ROOT
ATOM      1  O   HOH     1      52.953  -3.203  -2.414  0.00  0.00    +0.000 OA
ENDROOT
TORSDOF 0
