REMARK  Name = ../refined-set-2016/1ogd/1ogd_pocket.pdb
REMARK  116 active torsions:
REMARK  status: ('A' for Active; 'I' for Inactive)
REMARK    1  A    between atoms: _1  and  _3
REMARK    2  A    between atoms: _3  and  _4
REMARK    3  A    between atoms: _6  and  _8
REMARK    4  A    between atoms: _8  and  _9
REMARK    5  A    between atoms: _8  and  _11
REMARK    6  A    between atoms: _11  and  _12
REMARK    7  A    between atoms: _17  and  _19
REMARK    8  A    between atoms: _19  and  _20
REMARK    9  A    between atoms: _19  and  _22
REMARK   10  A    between atoms: _22  and  _23
REMARK   11  A    between atoms: _26  and  _28
REMARK   12  A    between atoms: _28  and  _29
REMARK   13  A    between atoms: _28  and  _31
REMARK   14  A    between atoms: _31  and  _32
REMARK   15  A    between atoms: _32  and  _33
REMARK   16  A    between atoms: _36  and  _38
REMARK   17  A    between atoms: _38  and  _39
REMARK   18  A    between atoms: _42  and  _44
REMARK   19  A    between atoms: _44  and  _45
REMARK   20  A    between atoms: _47  and  _49
REMARK   21  A    between atoms: _49  and  _50
REMARK   22  A    between atoms: _49  and  _52
REMARK   23  A    between atoms: _55  and  _57
REMARK   24  A    between atoms: _57  and  _58
REMARK   25  A    between atoms: _57  and  _60
REMARK   26  A    between atoms: _60  and  _61
REMARK   27  A    between atoms: _64  and  _66
REMARK   28  A    between atoms: _66  and  _67
REMARK   29  A    between atoms: _66  and  _69
REMARK   30  A    between atoms: _69  and  _70
REMARK   31  A    between atoms: _77  and  _79
REMARK   32  A    between atoms: _79  and  _80
REMARK   33  A    between atoms: _83  and  _85
REMARK   34  A    between atoms: _85  and  _86
REMARK   35  A    between atoms: _85  and  _88
REMARK   36  A    between atoms: _88  and  _89
REMARK   37  A    between atoms: _92  and  _94
REMARK   38  A    between atoms: _94  and  _95
REMARK   39  A    between atoms: _98  and  _100
REMARK   40  A    between atoms: _100  and  _101
REMARK   41  A    between atoms: _103  and  _105
REMARK   42  A    between atoms: _105  and  _106
REMARK   43  A    between atoms: _105  and  _108
REMARK   44  A    between atoms: _108  and  _109
REMARK   45  A    between atoms: _113  and  _114
REMARK   46  A    between atoms: _119  and  _121
REMARK   47  A    between atoms: _121  and  _122
REMARK   48  A    between atoms: _125  and  _127
REMARK   49  A    between atoms: _127  and  _128
REMARK   50  A    between atoms: _127  and  _130
REMARK   51  A    between atoms: _130  and  _131
REMARK   52  A    between atoms: _131  and  _132
REMARK   53  A    between atoms: _135  and  _137
REMARK   54  A    between atoms: _137  and  _138
REMARK   55  A    between atoms: _137  and  _140
REMARK   56  A    between atoms: _140  and  _141
REMARK   57  A    between atoms: _143  and  _145
REMARK   58  A    between atoms: _145  and  _146
REMARK   59  A    between atoms: _145  and  _148
REMARK   60  A    between atoms: _148  and  _149
REMARK   61  A    between atoms: _154  and  _156
REMARK   62  A    between atoms: _156  and  _157
REMARK   63  A    between atoms: _156  and  _159
REMARK   64  A    between atoms: _159  and  _160
REMARK   65  A    between atoms: _165  and  _167
REMARK   66  A    between atoms: _167  and  _168
REMARK   67  A    between atoms: _167  and  _170
REMARK   68  A    between atoms: _170  and  _171
REMARK   69  A    between atoms: _171  and  _172
REMARK   70  A    between atoms: _175  and  _177
REMARK   71  A    between atoms: _177  and  _178
REMARK   72  A    between atoms: _177  and  _180
REMARK   73  A    between atoms: _180  and  _181
REMARK   74  A    between atoms: _187  and  _189
REMARK   75  A    between atoms: _189  and  _190
REMARK   76  A    between atoms: _189  and  _192
REMARK   77  A    between atoms: _192  and  _193
REMARK   78  A    between atoms: _193  and  _194
REMARK   79  A    between atoms: _194  and  _195
REMARK   80  A    between atoms: _195  and  _196
REMARK   81  A    between atoms: _200  and  _202
REMARK   82  A    between atoms: _202  and  _203
REMARK   83  A    between atoms: _202  and  _205
REMARK   84  A    between atoms: _205  and  _206
REMARK   85  A    between atoms: _206  and  _207
REMARK   86  A    between atoms: _207  and  _208
REMARK   87  A    between atoms: _217  and  _219
REMARK   88  A    between atoms: _219  and  _220
REMARK   89  A    between atoms: _219  and  _222
REMARK   90  A    between atoms: _222  and  _223
REMARK   91  A    between atoms: _223  and  _224
REMARK   92  A    between atoms: _227  and  _229
REMARK   93  A    between atoms: _229  and  _230
REMARK   94  A    between atoms: _229  and  _232
REMARK   95  A    between atoms: _232  and  _233
REMARK   96  A    between atoms: _239  and  _241
REMARK   97  A    between atoms: _241  and  _242
REMARK   98  A    between atoms: _241  and  _244
REMARK   99  A    between atoms: _244  and  _245
REMARK  100  A    between atoms: _249  and  _250
REMARK  101  A    between atoms: _255  and  _257
REMARK  102  A    between atoms: _257  and  _258
REMARK  103  A    between atoms: _257  and  _260
REMARK  104  A    between atoms: _260  and  _261
REMARK  105  A    between atoms: _266  and  _267
REMARK  106  A    between atoms: _269  and  _271
REMARK  107  A    between atoms: _271  and  _272
REMARK  108  A    between atoms: _275  and  _277
REMARK  109  A    between atoms: _277  and  _278
REMARK  110  A    between atoms: _277  and  _280
REMARK  111  A    between atoms: _280  and  _281
REMARK  112  A    between atoms: _286  and  _290
REMARK  113  A    between atoms: _290  and  _291
REMARK  114  A    between atoms: _290  and  _293
REMARK  115  A    between atoms: _293  and  _294
REMARK  116  A    between atoms: _294  and  _295
REMARK                            x       y       z     vdW  Elec       q    Type
REMARK                         _______ _______ _______ _____ _____    ______ ____
ROOT
ATOM      1  CA  HIS A   2      52.736  31.760  26.632  0.00  0.00    +0.155 C 
ENDROOT
BRANCH   1   3
ATOM      2  C   GLY A   1      54.365  31.055  24.985  0.00  0.00    +0.240 C 
ATOM      3  N   HIS A   2      53.709  32.038  25.584  0.00  0.00    -0.297 N 
ATOM      4  H   HIS A   2      53.891  33.022  25.302  0.00  0.00    +0.150 HD
ATOM      5  O   GLY A   1      54.178  29.872  25.262  0.00  0.00    -0.274 OA
BRANCH   2   6
ATOM      6  CA  GLY A   1      55.370  31.431  23.914  0.00  0.00    +0.169 C 
BRANCH   6   7
ATOM      7  N   GLY A   1      56.089  30.211  23.609  0.00  0.00    -0.236 NA
ATOM      8  H   GLY A   1      55.554  29.375  23.300  0.00  0.00    +0.142 HD
ENDBRANCH   6   7
ENDBRANCH   2   6
ENDBRANCH   1   3
BRANCH   1   9
ATOM      9  C   HIS A   2      51.656  30.765  26.203  0.00  0.00    +0.241 C 
ATOM     10  N   THR A   3      51.526  29.692  26.978  0.00  0.00    -0.296 N 
ATOM     11  H   THR A   3      52.165  29.613  27.794  0.00  0.00    +0.150 HD
ATOM     12  O   HIS A   2      50.960  30.984  25.215  0.00  0.00    -0.273 OA
BRANCH  10  13
ATOM     13  CA  THR A   3      50.555  28.609  26.777  0.00  0.00    +0.164 C 
BRANCH  13  14
ATOM     14  CB  THR A   3      49.143  29.117  26.312  0.00  0.00    +0.136 C 
ATOM     15  CG2 THR A   3      48.658  30.244  27.210  0.00  0.00    +0.034 C 
BRANCH  14  16
ATOM     16  OG1 THR A   3      49.192  29.566  24.952  0.00  0.00    -0.382 OA
ATOM     17  HG1 THR A   3      49.842  30.308  24.874  0.00  0.00    +0.210 HD
ENDBRANCH  14  16
ENDBRANCH  13  14
BRANCH  13  18
ATOM     18  C   THR A   3      50.984  27.469  25.848  0.00  0.00    +0.229 C 
ATOM     19  O   THR A   3      50.271  26.467  25.749  0.00  0.00    -0.286 OA
ENDBRANCH  13  18
ENDBRANCH  10  13
ENDBRANCH   1   9
BRANCH   1  20
ATOM     20  CB  HIS A   2      52.067  33.060  27.087  0.00  0.00    +0.076 C 
BRANCH  20  21
ATOM     21  CG  HIS A   2      51.310  32.929  28.371  0.00  0.00    +0.082 A 
ATOM     22  CD2 HIS A   2      51.337  31.970  29.329  0.00  0.00    +0.115 A 
ATOM     23  NE2 HIS A   2      50.451  32.350  30.308  0.00  0.00    -0.221 NA
ATOM     24  CE1 HIS A   2      49.900  33.500  29.964  0.00  0.00    +0.199 A 
ATOM     25  ND1 HIS A   2      50.401  33.872  28.799  0.00  0.00    -0.227 NA
ENDBRANCH  20  21
ENDBRANCH   1  20
TORSDOF 10
REMARK  Name = ../refined-set-2016/1ogd/1ogd_pocket.pdb
REMARK  116 active torsions:
REMARK  status: ('A' for Active; 'I' for Inactive)
REMARK    1  A    between atoms: _1  and  _3
REMARK    2  A    between atoms: _3  and  _4
REMARK    3  A    between atoms: _6  and  _8
REMARK    4  A    between atoms: _8  and  _9
REMARK    5  A    between atoms: _8  and  _11
REMARK    6  A    between atoms: _11  and  _12
REMARK    7  A    between atoms: _17  and  _19
REMARK    8  A    between atoms: _19  and  _20
REMARK    9  A    between atoms: _19  and  _22
REMARK   10  A    between atoms: _22  and  _23
REMARK   11  A    between atoms: _26  and  _28
REMARK   12  A    between atoms: _28  and  _29
REMARK   13  A    between atoms: _28  and  _31
REMARK   14  A    between atoms: _31  and  _32
REMARK   15  A    between atoms: _32  and  _33
REMARK   16  A    between atoms: _36  and  _38
REMARK   17  A    between atoms: _38  and  _39
REMARK   18  A    between atoms: _42  and  _44
REMARK   19  A    between atoms: _44  and  _45
REMARK   20  A    between atoms: _47  and  _49
REMARK   21  A    between atoms: _49  and  _50
REMARK   22  A    between atoms: _49  and  _52
REMARK   23  A    between atoms: _55  and  _57
REMARK   24  A    between atoms: _57  and  _58
REMARK   25  A    between atoms: _57  and  _60
REMARK   26  A    between atoms: _60  and  _61
REMARK   27  A    between atoms: _64  and  _66
REMARK   28  A    between atoms: _66  and  _67
REMARK   29  A    between atoms: _66  and  _69
REMARK   30  A    between atoms: _69  and  _70
REMARK   31  A    between atoms: _77  and  _79
REMARK   32  A    between atoms: _79  and  _80
REMARK   33  A    between atoms: _83  and  _85
REMARK   34  A    between atoms: _85  and  _86
REMARK   35  A    between atoms: _85  and  _88
REMARK   36  A    between atoms: _88  and  _89
REMARK   37  A    between atoms: _92  and  _94
REMARK   38  A    between atoms: _94  and  _95
REMARK   39  A    between atoms: _98  and  _100
REMARK   40  A    between atoms: _100  and  _101
REMARK   41  A    between atoms: _103  and  _105
REMARK   42  A    between atoms: _105  and  _106
REMARK   43  A    between atoms: _105  and  _108
REMARK   44  A    between atoms: _108  and  _109
REMARK   45  A    between atoms: _113  and  _114
REMARK   46  A    between atoms: _119  and  _121
REMARK   47  A    between atoms: _121  and  _122
REMARK   48  A    between atoms: _125  and  _127
REMARK   49  A    between atoms: _127  and  _128
REMARK   50  A    between atoms: _127  and  _130
REMARK   51  A    between atoms: _130  and  _131
REMARK   52  A    between atoms: _131  and  _132
REMARK   53  A    between atoms: _135  and  _137
REMARK   54  A    between atoms: _137  and  _138
REMARK   55  A    between atoms: _137  and  _140
REMARK   56  A    between atoms: _140  and  _141
REMARK   57  A    between atoms: _143  and  _145
REMARK   58  A    between atoms: _145  and  _146
REMARK   59  A    between atoms: _145  and  _148
REMARK   60  A    between atoms: _148  and  _149
REMARK   61  A    between atoms: _154  and  _156
REMARK   62  A    between atoms: _156  and  _157
REMARK   63  A    between atoms: _156  and  _159
REMARK   64  A    between atoms: _159  and  _160
REMARK   65  A    between atoms: _165  and  _167
REMARK   66  A    between atoms: _167  and  _168
REMARK   67  A    between atoms: _167  and  _170
REMARK   68  A    between atoms: _170  and  _171
REMARK   69  A    between atoms: _171  and  _172
REMARK   70  A    between atoms: _175  and  _177
REMARK   71  A    between atoms: _177  and  _178
REMARK   72  A    between atoms: _177  and  _180
REMARK   73  A    between atoms: _180  and  _181
REMARK   74  A    between atoms: _187  and  _189
REMARK   75  A    between atoms: _189  and  _190
REMARK   76  A    between atoms: _189  and  _192
REMARK   77  A    between atoms: _192  and  _193
REMARK   78  A    between atoms: _193  and  _194
REMARK   79  A    between atoms: _194  and  _195
REMARK   80  A    between atoms: _195  and  _196
REMARK   81  A    between atoms: _200  and  _202
REMARK   82  A    between atoms: _202  and  _203
REMARK   83  A    between atoms: _202  and  _205
REMARK   84  A    between atoms: _205  and  _206
REMARK   85  A    between atoms: _206  and  _207
REMARK   86  A    between atoms: _207  and  _208
REMARK   87  A    between atoms: _217  and  _219
REMARK   88  A    between atoms: _219  and  _220
REMARK   89  A    between atoms: _219  and  _222
REMARK   90  A    between atoms: _222  and  _223
REMARK   91  A    between atoms: _223  and  _224
REMARK   92  A    between atoms: _227  and  _229
REMARK   93  A    between atoms: _229  and  _230
REMARK   94  A    between atoms: _229  and  _232
REMARK   95  A    between atoms: _232  and  _233
REMARK   96  A    between atoms: _239  and  _241
REMARK   97  A    between atoms: _241  and  _242
REMARK   98  A    between atoms: _241  and  _244
REMARK   99  A    between atoms: _244  and  _245
REMARK  100  A    between atoms: _249  and  _250
REMARK  101  A    between atoms: _255  and  _257
REMARK  102  A    between atoms: _257  and  _258
REMARK  103  A    between atoms: _257  and  _260
REMARK  104  A    between atoms: _260  and  _261
REMARK  105  A    between atoms: _266  and  _267
REMARK  106  A    between atoms: _269  and  _271
REMARK  107  A    between atoms: _271  and  _272
REMARK  108  A    between atoms: _275  and  _277
REMARK  109  A    between atoms: _277  and  _278
REMARK  110  A    between atoms: _277  and  _280
REMARK  111  A    between atoms: _280  and  _281
REMARK  112  A    between atoms: _286  and  _290
REMARK  113  A    between atoms: _290  and  _291
REMARK  114  A    between atoms: _290  and  _293
REMARK  115  A    between atoms: _293  and  _294
REMARK  116  A    between atoms: _294  and  _295
REMARK                            x       y       z     vdW  Elec       q    Type
REMARK                         _______ _______ _______ _____ _____    ______ ____
ROOT
ATOM      1  CA  GLU A   1      52.389  27.680  34.610  0.00  0.00    +0.134 C 
ENDROOT
BRANCH   1   2
ATOM      2  N   GLU A   1      53.527  27.133  33.875  0.00  0.00    -0.239 NA
ATOM      3  H   GLU A   1      53.437  26.932  32.859  0.00  0.00    +0.142 HD
ENDBRANCH   1   2
BRANCH   1   4
ATOM      4  C   GLU A   1      51.322  26.633  34.905  0.00  0.00    +0.224 C 
ATOM      5  O   GLU A   1      50.426  26.866  35.713  0.00  0.00    -0.287 OA
ENDBRANCH   1   4
BRANCH   1   6
ATOM      6  CB  GLU A   1      51.746  28.851  33.859  0.00  0.00    +0.037 C 
BRANCH   6   7
ATOM      7  CG  GLU A   1      51.185  28.512  32.489  0.00  0.00    +0.116 C 
BRANCH   7   8
ATOM      8  CD  GLU A   1      50.273  29.604  31.945  0.00  0.00    +0.365 C 
ATOM      9  OE2 GLU A   1      50.439  30.778  32.347  0.00  0.00    -0.246 OA
ATOM     10  OE1 GLU A   1      49.398  29.291  31.107  0.00  0.00    -0.246 OA
ENDBRANCH   7   8
ENDBRANCH   6   7
ENDBRANCH   1   6
TORSDOF 5
REMARK  Name = ../refined-set-2016/1ogd/1ogd_pocket.pdb
REMARK  116 active torsions:
REMARK  status: ('A' for Active; 'I' for Inactive)
REMARK    1  A    between atoms: _1  and  _3
REMARK    2  A    between atoms: _3  and  _4
REMARK    3  A    between atoms: _6  and  _8
REMARK    4  A    between atoms: _8  and  _9
REMARK    5  A    between atoms: _8  and  _11
REMARK    6  A    between atoms: _11  and  _12
REMARK    7  A    between atoms: _17  and  _19
REMARK    8  A    between atoms: _19  and  _20
REMARK    9  A    between atoms: _19  and  _22
REMARK   10  A    between atoms: _22  and  _23
REMARK   11  A    between atoms: _26  and  _28
REMARK   12  A    between atoms: _28  and  _29
REMARK   13  A    between atoms: _28  and  _31
REMARK   14  A    between atoms: _31  and  _32
REMARK   15  A    between atoms: _32  and  _33
REMARK   16  A    between atoms: _36  and  _38
REMARK   17  A    between atoms: _38  and  _39
REMARK   18  A    between atoms: _42  and  _44
REMARK   19  A    between atoms: _44  and  _45
REMARK   20  A    between atoms: _47  and  _49
REMARK   21  A    between atoms: _49  and  _50
REMARK   22  A    between atoms: _49  and  _52
REMARK   23  A    between atoms: _55  and  _57
REMARK   24  A    between atoms: _57  and  _58
REMARK   25  A    between atoms: _57  and  _60
REMARK   26  A    between atoms: _60  and  _61
REMARK   27  A    between atoms: _64  and  _66
REMARK   28  A    between atoms: _66  and  _67
REMARK   29  A    between atoms: _66  and  _69
REMARK   30  A    between atoms: _69  and  _70
REMARK   31  A    between atoms: _77  and  _79
REMARK   32  A    between atoms: _79  and  _80
REMARK   33  A    between atoms: _83  and  _85
REMARK   34  A    between atoms: _85  and  _86
REMARK   35  A    between atoms: _85  and  _88
REMARK   36  A    between atoms: _88  and  _89
REMARK   37  A    between atoms: _92  and  _94
REMARK   38  A    between atoms: _94  and  _95
REMARK   39  A    between atoms: _98  and  _100
REMARK   40  A    between atoms: _100  and  _101
REMARK   41  A    between atoms: _103  and  _105
REMARK   42  A    between atoms: _105  and  _106
REMARK   43  A    between atoms: _105  and  _108
REMARK   44  A    between atoms: _108  and  _109
REMARK   45  A    between atoms: _113  and  _114
REMARK   46  A    between atoms: _119  and  _121
REMARK   47  A    between atoms: _121  and  _122
REMARK   48  A    between atoms: _125  and  _127
REMARK   49  A    between atoms: _127  and  _128
REMARK   50  A    between atoms: _127  and  _130
REMARK   51  A    between atoms: _130  and  _131
REMARK   52  A    between atoms: _131  and  _132
REMARK   53  A    between atoms: _135  and  _137
REMARK   54  A    between atoms: _137  and  _138
REMARK   55  A    between atoms: _137  and  _140
REMARK   56  A    between atoms: _140  and  _141
REMARK   57  A    between atoms: _143  and  _145
REMARK   58  A    between atoms: _145  and  _146
REMARK   59  A    between atoms: _145  and  _148
REMARK   60  A    between atoms: _148  and  _149
REMARK   61  A    between atoms: _154  and  _156
REMARK   62  A    between atoms: _156  and  _157
REMARK   63  A    between atoms: _156  and  _159
REMARK   64  A    between atoms: _159  and  _160
REMARK   65  A    between atoms: _165  and  _167
REMARK   66  A    between atoms: _167  and  _168
REMARK   67  A    between atoms: _167  and  _170
REMARK   68  A    between atoms: _170  and  _171
REMARK   69  A    between atoms: _171  and  _172
REMARK   70  A    between atoms: _175  and  _177
REMARK   71  A    between atoms: _177  and  _178
REMARK   72  A    between atoms: _177  and  _180
REMARK   73  A    between atoms: _180  and  _181
REMARK   74  A    between atoms: _187  and  _189
REMARK   75  A    between atoms: _189  and  _190
REMARK   76  A    between atoms: _189  and  _192
REMARK   77  A    between atoms: _192  and  _193
REMARK   78  A    between atoms: _193  and  _194
REMARK   79  A    between atoms: _194  and  _195
REMARK   80  A    between atoms: _195  and  _196
REMARK   81  A    between atoms: _200  and  _202
REMARK   82  A    between atoms: _202  and  _203
REMARK   83  A    between atoms: _202  and  _205
REMARK   84  A    between atoms: _205  and  _206
REMARK   85  A    between atoms: _206  and  _207
REMARK   86  A    between atoms: _207  and  _208
REMARK   87  A    between atoms: _217  and  _219
REMARK   88  A    between atoms: _219  and  _220
REMARK   89  A    between atoms: _219  and  _222
REMARK   90  A    between atoms: _222  and  _223
REMARK   91  A    between atoms: _223  and  _224
REMARK   92  A    between atoms: _227  and  _229
REMARK   93  A    between atoms: _229  and  _230
REMARK   94  A    between atoms: _229  and  _232
REMARK   95  A    between atoms: _232  and  _233
REMARK   96  A    between atoms: _239  and  _241
REMARK   97  A    between atoms: _241  and  _242
REMARK   98  A    between atoms: _241  and  _244
REMARK   99  A    between atoms: _244  and  _245
REMARK  100  A    between atoms: _249  and  _250
REMARK  101  A    between atoms: _255  and  _257
REMARK  102  A    between atoms: _257  and  _258
REMARK  103  A    between atoms: _257  and  _260
REMARK  104  A    between atoms: _260  and  _261
REMARK  105  A    between atoms: _266  and  _267
REMARK  106  A    between atoms: _269  and  _271
REMARK  107  A    between atoms: _271  and  _272
REMARK  108  A    between atoms: _275  and  _277
REMARK  109  A    between atoms: _277  and  _278
REMARK  110  A    between atoms: _277  and  _280
REMARK  111  A    between atoms: _280  and  _281
REMARK  112  A    between atoms: _286  and  _290
REMARK  113  A    between atoms: _290  and  _291
REMARK  114  A    between atoms: _290  and  _293
REMARK  115  A    between atoms: _293  and  _294
REMARK  116  A    between atoms: _294  and  _295
REMARK                            x       y       z     vdW  Elec       q    Type
REMARK                         _______ _______ _______ _____ _____    ______ ____
ROOT
ATOM      1  C   VAL A   3      56.282  34.622  31.900  0.00  0.00    +0.241 C 
ATOM      2  O   VAL A   3      56.076  34.503  33.113  0.00  0.00    -0.273 OA
ATOM      3  N   LEU A   4      57.334  35.274  31.406  0.00  0.00    -0.297 N 
ATOM      4  H   LEU A   4      57.441  35.349  30.374  0.00  0.00    +0.150 HD
ENDROOT
BRANCH   1   5
ATOM      5  CA  VAL A   3      55.324  33.993  30.882  0.00  0.00    +0.149 C 
BRANCH   5   7
ATOM      6  C   GLY A   2      54.696  31.654  30.754  0.00  0.00    +0.243 C 
ATOM      7  N   VAL A   3      54.741  32.784  31.450  0.00  0.00    -0.297 N 
ATOM      8  H   VAL A   3      54.354  32.807  32.415  0.00  0.00    +0.150 HD
ATOM      9  O   GLY A   2      55.127  31.565  29.604  0.00  0.00    -0.273 OA
BRANCH   6  10
ATOM     10  CA  GLY A   2      54.085  30.446  31.433  0.00  0.00    +0.176 C 
BRANCH  10  12
ATOM     11  C   ALA A   1      53.896  28.648  29.840  0.00  0.00    +0.238 C 
ATOM     12  N   GLY A   2      54.602  29.256  30.786  0.00  0.00    -0.296 N 
ATOM     13  H   GLY A   2      55.530  28.877  31.064  0.00  0.00    +0.150 HD
ATOM     14  O   ALA A   1      52.783  29.030  29.482  0.00  0.00    -0.274 OA
BRANCH  11  15
ATOM     15  CA  ALA A   1      54.560  27.435  29.202  0.00  0.00    +0.145 C 
ATOM     16  CB  ALA A   1      55.157  27.833  27.855  0.00  0.00    +0.028 C 
BRANCH  15  17
ATOM     17  N   ALA A   1      53.702  26.269  29.031  0.00  0.00    -0.238 NA
ATOM     18  H   ALA A   1      53.536  25.909  28.069  0.00  0.00    +0.142 HD
ENDBRANCH  15  17
ENDBRANCH  11  15
ENDBRANCH  10  12
ENDBRANCH   6  10
ENDBRANCH   5   7
BRANCH   5  19
ATOM     19  CB  VAL A   3      54.209  34.988  30.464  0.00  0.00    +0.027 C 
ATOM     20  CG2 VAL A   3      53.441  35.455  31.683  0.00  0.00    +0.002 C 
ATOM     21  CG1 VAL A   3      54.805  36.156  29.692  0.00  0.00    +0.002 C 
ENDBRANCH   5  19
ENDBRANCH   1   5
BRANCH   3  22
ATOM     22  CA  LEU A   4      58.343  35.887  32.270  0.00  0.00    +0.149 C 
BRANCH  22  23
ATOM     23  C   LEU A   4      58.059  37.315  32.735  0.00  0.00    +0.241 C 
ATOM     24  O   LEU A   4      58.924  37.957  33.326  0.00  0.00    -0.273 OA
ATOM     25  N   PHE A   5      56.860  37.816  32.469  0.00  0.00    -0.295 N 
ATOM     26  H   PHE A   5      56.166  37.235  31.957  0.00  0.00    +0.150 HD
BRANCH  25  27
ATOM     27  CA  PHE A   5      56.499  39.165  32.881  0.00  0.00    +0.180 C 
BRANCH  27  28
ATOM     28  C   PHE A   5      54.987  39.312  32.900  0.00  0.00    +0.383 C 
ATOM     29  OXT PHE A   5      54.502  40.422  33.203  0.00  0.00    -0.244 OA
ATOM     30  O   PHE A   5      54.302  38.313  32.613  0.00  0.00    -0.244 OA
ENDBRANCH  27  28
BRANCH  27  31
ATOM     31  CB  PHE A   5      57.106  40.203  31.931  0.00  0.00    +0.058 C 
BRANCH  31  32
ATOM     32  CG  PHE A   5      56.692  40.032  30.499  0.00  0.00    -0.020 A 
ATOM     33  CD2 PHE A   5      55.579  40.705  29.999  0.00  0.00    -0.004 A 
ATOM     34  CE2 PHE A   5      55.168  40.527  28.670  0.00  0.00    -0.000 A 
ATOM     35  CZ  PHE A   5      55.880  39.669  27.833  0.00  0.00    -0.000 A 
ATOM     36  CE1 PHE A   5      56.997  38.992  28.326  0.00  0.00    -0.000 A 
ATOM     37  CD1 PHE A   5      57.395  39.178  29.654  0.00  0.00    -0.004 A 
ENDBRANCH  31  32
ENDBRANCH  27  31
ENDBRANCH  25  27
ENDBRANCH  22  23
BRANCH  22  38
ATOM     38  CB  LEU A   4      59.704  35.853  31.577  0.00  0.00    +0.029 C 
BRANCH  38  39
ATOM     39  CG  LEU A   4      60.250  34.464  31.252  0.00  0.00    +0.002 C 
ATOM     40  CD2 LEU A   4      60.477  33.694  32.545  0.00  0.00    +0.000 C 
ATOM     41  CD1 LEU A   4      61.542  34.590  30.459  0.00  0.00    +0.000 C 
ENDBRANCH  38  39
ENDBRANCH  22  38
ENDBRANCH   3  22
TORSDOF 15
REMARK  Name = ../refined-set-2016/1ogd/1ogd_pocket.pdb
REMARK  116 active torsions:
REMARK  status: ('A' for Active; 'I' for Inactive)
REMARK    1  A    between atoms: _1  and  _3
REMARK    2  A    between atoms: _3  and  _4
REMARK    3  A    between atoms: _6  and  _8
REMARK    4  A    between atoms: _8  and  _9
REMARK    5  A    between atoms: _8  and  _11
REMARK    6  A    between atoms: _11  and  _12
REMARK    7  A    between atoms: _17  and  _19
REMARK    8  A    between atoms: _19  and  _20
REMARK    9  A    between atoms: _19  and  _22
REMARK   10  A    between atoms: _22  and  _23
REMARK   11  A    between atoms: _26  and  _28
REMARK   12  A    between atoms: _28  and  _29
REMARK   13  A    between atoms: _28  and  _31
REMARK   14  A    between atoms: _31  and  _32
REMARK   15  A    between atoms: _32  and  _33
REMARK   16  A    between atoms: _36  and  _38
REMARK   17  A    between atoms: _38  and  _39
REMARK   18  A    between atoms: _42  and  _44
REMARK   19  A    between atoms: _44  and  _45
REMARK   20  A    between atoms: _47  and  _49
REMARK   21  A    between atoms: _49  and  _50
REMARK   22  A    between atoms: _49  and  _52
REMARK   23  A    between atoms: _55  and  _57
REMARK   24  A    between atoms: _57  and  _58
REMARK   25  A    between atoms: _57  and  _60
REMARK   26  A    between atoms: _60  and  _61
REMARK   27  A    between atoms: _64  and  _66
REMARK   28  A    between atoms: _66  and  _67
REMARK   29  A    between atoms: _66  and  _69
REMARK   30  A    between atoms: _69  and  _70
REMARK   31  A    between atoms: _77  and  _79
REMARK   32  A    between atoms: _79  and  _80
REMARK   33  A    between atoms: _83  and  _85
REMARK   34  A    between atoms: _85  and  _86
REMARK   35  A    between atoms: _85  and  _88
REMARK   36  A    between atoms: _88  and  _89
REMARK   37  A    between atoms: _92  and  _94
REMARK   38  A    between atoms: _94  and  _95
REMARK   39  A    between atoms: _98  and  _100
REMARK   40  A    between atoms: _100  and  _101
REMARK   41  A    between atoms: _103  and  _105
REMARK   42  A    between atoms: _105  and  _106
REMARK   43  A    between atoms: _105  and  _108
REMARK   44  A    between atoms: _108  and  _109
REMARK   45  A    between atoms: _113  and  _114
REMARK   46  A    between atoms: _119  and  _121
REMARK   47  A    between atoms: _121  and  _122
REMARK   48  A    between atoms: _125  and  _127
REMARK   49  A    between atoms: _127  and  _128
REMARK   50  A    between atoms: _127  and  _130
REMARK   51  A    between atoms: _130  and  _131
REMARK   52  A    between atoms: _131  and  _132
REMARK   53  A    between atoms: _135  and  _137
REMARK   54  A    between atoms: _137  and  _138
REMARK   55  A    between atoms: _137  and  _140
REMARK   56  A    between atoms: _140  and  _141
REMARK   57  A    between atoms: _143  and  _145
REMARK   58  A    between atoms: _145  and  _146
REMARK   59  A    between atoms: _145  and  _148
REMARK   60  A    between atoms: _148  and  _149
REMARK   61  A    between atoms: _154  and  _156
REMARK   62  A    between atoms: _156  and  _157
REMARK   63  A    between atoms: _156  and  _159
REMARK   64  A    between atoms: _159  and  _160
REMARK   65  A    between atoms: _165  and  _167
REMARK   66  A    between atoms: _167  and  _168
REMARK   67  A    between atoms: _167  and  _170
REMARK   68  A    between atoms: _170  and  _171
REMARK   69  A    between atoms: _171  and  _172
REMARK   70  A    between atoms: _175  and  _177
REMARK   71  A    between atoms: _177  and  _178
REMARK   72  A    between atoms: _177  and  _180
REMARK   73  A    between atoms: _180  and  _181
REMARK   74  A    between atoms: _187  and  _189
REMARK   75  A    between atoms: _189  and  _190
REMARK   76  A    between atoms: _189  and  _192
REMARK   77  A    between atoms: _192  and  _193
REMARK   78  A    between atoms: _193  and  _194
REMARK   79  A    between atoms: _194  and  _195
REMARK   80  A    between atoms: _195  and  _196
REMARK   81  A    between atoms: _200  and  _202
REMARK   82  A    between atoms: _202  and  _203
REMARK   83  A    between atoms: _202  and  _205
REMARK   84  A    between atoms: _205  and  _206
REMARK   85  A    between atoms: _206  and  _207
REMARK   86  A    between atoms: _207  and  _208
REMARK   87  A    between atoms: _217  and  _219
REMARK   88  A    between atoms: _219  and  _220
REMARK   89  A    between atoms: _219  and  _222
REMARK   90  A    between atoms: _222  and  _223
REMARK   91  A    between atoms: _223  and  _224
REMARK   92  A    between atoms: _227  and  _229
REMARK   93  A    between atoms: _229  and  _230
REMARK   94  A    between atoms: _229  and  _232
REMARK   95  A    between atoms: _232  and  _233
REMARK   96  A    between atoms: _239  and  _241
REMARK   97  A    between atoms: _241  and  _242
REMARK   98  A    between atoms: _241  and  _244
REMARK   99  A    between atoms: _244  and  _245
REMARK  100  A    between atoms: _249  and  _250
REMARK  101  A    between atoms: _255  and  _257
REMARK  102  A    between atoms: _257  and  _258
REMARK  103  A    between atoms: _257  and  _260
REMARK  104  A    between atoms: _260  and  _261
REMARK  105  A    between atoms: _266  and  _267
REMARK  106  A    between atoms: _269  and  _271
REMARK  107  A    between atoms: _271  and  _272
REMARK  108  A    between atoms: _275  and  _277
REMARK  109  A    between atoms: _277  and  _278
REMARK  110  A    between atoms: _277  and  _280
REMARK  111  A    between atoms: _280  and  _281
REMARK  112  A    between atoms: _286  and  _290
REMARK  113  A    between atoms: _290  and  _291
REMARK  114  A    between atoms: _290  and  _293
REMARK  115  A    between atoms: _293  and  _294
REMARK  116  A    between atoms: _294  and  _295
REMARK                            x       y       z     vdW  Elec       q    Type
REMARK                         _______ _______ _______ _____ _____    ______ ____
ROOT
ATOM      1  C   ALA A   3      57.620  37.283  24.431  0.00  0.00    +0.241 C 
ATOM      2  N   GLY A   4      56.383  37.457  24.876  0.00  0.00    -0.295 N 
ATOM      3  H   GLY A   4      55.968  38.410  24.918  0.00  0.00    +0.150 HD
ATOM      4  O   ALA A   3      58.121  36.168  24.306  0.00  0.00    -0.273 OA
ENDROOT
BRANCH   1   5
ATOM      5  CA  ALA A   3      58.419  38.530  24.045  0.00  0.00    +0.149 C 
ATOM      6  CB  ALA A   3      59.579  38.719  25.018  0.00  0.00    +0.031 C 
BRANCH   5   8
ATOM      7  C   ASP A   2      56.722  39.920  23.021  0.00  0.00    +0.241 C 
ATOM      8  N   ALA A   3      57.671  39.774  23.936  0.00  0.00    -0.297 N 
ATOM      9  H   ALA A   3      57.884  40.559  24.584  0.00  0.00    +0.150 HD
ATOM     10  O   ASP A   2      56.402  39.011  22.249  0.00  0.00    -0.273 OA
BRANCH   7  11
ATOM     11  CA  ASP A   2      56.023  41.275  22.937  0.00  0.00    +0.160 C 
BRANCH  11  13
ATOM     12  C   ALA A   1      55.499  41.362  20.581  0.00  0.00    +0.238 C 
ATOM     13  N   ASP A   2      55.092  41.143  21.828  0.00  0.00    -0.297 N 
ATOM     14  H   ASP A   2      54.104  40.876  22.011  0.00  0.00    +0.150 HD
ATOM     15  O   ALA A   1      56.638  41.732  20.300  0.00  0.00    -0.274 OA
BRANCH  12  16
ATOM     16  CA  ALA A   1      54.463  41.121  19.497  0.00  0.00    +0.145 C 
ATOM     17  CB  ALA A   1      54.313  39.615  19.276  0.00  0.00    +0.028 C 
BRANCH  16  18
ATOM     18  N   ALA A   1      54.711  41.763  18.213  0.00  0.00    -0.238 NA
ATOM     19  H   ALA A   1      55.611  41.604  17.718  0.00  0.00    +0.142 HD
ENDBRANCH  16  18
ENDBRANCH  12  16
ENDBRANCH  11  13
BRANCH  11  20
ATOM     20  CB  ASP A   2      55.291  41.646  24.243  0.00  0.00    +0.143 C 
BRANCH  20  21
ATOM     21  CG  ASP A   2      54.212  40.648  24.643  0.00  0.00    +0.367 C 
ATOM     22  OD2 ASP A   2      53.150  41.114  25.107  0.00  0.00    -0.246 OA
ATOM     23  OD1 ASP A   2      54.418  39.417  24.525  0.00  0.00    -0.246 OA
ENDBRANCH  20  21
ENDBRANCH  11  20
ENDBRANCH   7  11
ENDBRANCH   5   8
ENDBRANCH   1   5
BRANCH   2  24
ATOM     24  CA  GLY A   4      55.616  36.304  25.303  0.00  0.00    +0.176 C 
BRANCH  24  25
ATOM     25  C   GLY A   4      54.491  35.797  24.425  0.00  0.00    +0.243 C 
ATOM     26  O   GLY A   4      53.999  34.696  24.647  0.00  0.00    -0.273 OA
ATOM     27  N   LEU A   5      54.071  36.578  23.439  0.00  0.00    -0.297 N 
ATOM     28  H   LEU A   5      54.527  37.499  23.282  0.00  0.00    +0.150 HD
BRANCH  27  29
ATOM     29  CA  LEU A   5      52.974  36.157  22.572  0.00  0.00    +0.149 C 
BRANCH  29  30
ATOM     30  C   LEU A   5      53.293  34.864  21.827  0.00  0.00    +0.244 C 
ATOM     31  N   PRO A   6      52.412  33.856  21.927  0.00  0.00    -0.273 N 
ATOM     32  CD  PRO A   6      51.215  33.703  22.772  0.00  0.00    +0.094 C 
ATOM     33  CG  PRO A   6      50.561  32.466  22.181  0.00  0.00    +0.024 C 
ATOM     34  CB  PRO A   6      51.747  31.610  21.832  0.00  0.00    +0.030 C 
ATOM     35  CA  PRO A   6      52.707  32.616  21.203  0.00  0.00    +0.140 C 
ATOM     36  O   LEU A   5      54.335  34.753  21.181  0.00  0.00    -0.273 OA
BRANCH  35  37
ATOM     37  C   PRO A   6      52.421  32.850  19.718  0.00  0.00    +0.227 C 
ATOM     38  O   PRO A   6      51.589  33.689  19.372  0.00  0.00    -0.286 OA
ENDBRANCH  35  37
ENDBRANCH  29  30
BRANCH  29  39
ATOM     39  CB  LEU A   5      52.656  37.245  21.552  0.00  0.00    +0.029 C 
BRANCH  39  40
ATOM     40  CG  LEU A   5      51.410  36.983  20.703  0.00  0.00    +0.002 C 
ATOM     41  CD2 LEU A   5      50.178  37.088  21.585  0.00  0.00    +0.000 C 
ATOM     42  CD1 LEU A   5      51.331  37.984  19.561  0.00  0.00    +0.000 C 
ENDBRANCH  39  40
ENDBRANCH  29  39
ENDBRANCH  27  29
ENDBRANCH  24  25
ENDBRANCH   2  24
TORSDOF 15
REMARK  Name = ../refined-set-2016/1ogd/1ogd_pocket.pdb
REMARK  116 active torsions:
REMARK  status: ('A' for Active; 'I' for Inactive)
REMARK    1  A    between atoms: _1  and  _3
REMARK    2  A    between atoms: _3  and  _4
REMARK    3  A    between atoms: _6  and  _8
REMARK    4  A    between atoms: _8  and  _9
REMARK    5  A    between atoms: _8  and  _11
REMARK    6  A    between atoms: _11  and  _12
REMARK    7  A    between atoms: _17  and  _19
REMARK    8  A    between atoms: _19  and  _20
REMARK    9  A    between atoms: _19  and  _22
REMARK   10  A    between atoms: _22  and  _23
REMARK   11  A    between atoms: _26  and  _28
REMARK   12  A    between atoms: _28  and  _29
REMARK   13  A    between atoms: _28  and  _31
REMARK   14  A    between atoms: _31  and  _32
REMARK   15  A    between atoms: _32  and  _33
REMARK   16  A    between atoms: _36  and  _38
REMARK   17  A    between atoms: _38  and  _39
REMARK   18  A    between atoms: _42  and  _44
REMARK   19  A    between atoms: _44  and  _45
REMARK   20  A    between atoms: _47  and  _49
REMARK   21  A    between atoms: _49  and  _50
REMARK   22  A    between atoms: _49  and  _52
REMARK   23  A    between atoms: _55  and  _57
REMARK   24  A    between atoms: _57  and  _58
REMARK   25  A    between atoms: _57  and  _60
REMARK   26  A    between atoms: _60  and  _61
REMARK   27  A    between atoms: _64  and  _66
REMARK   28  A    between atoms: _66  and  _67
REMARK   29  A    between atoms: _66  and  _69
REMARK   30  A    between atoms: _69  and  _70
REMARK   31  A    between atoms: _77  and  _79
REMARK   32  A    between atoms: _79  and  _80
REMARK   33  A    between atoms: _83  and  _85
REMARK   34  A    between atoms: _85  and  _86
REMARK   35  A    between atoms: _85  and  _88
REMARK   36  A    between atoms: _88  and  _89
REMARK   37  A    between atoms: _92  and  _94
REMARK   38  A    between atoms: _94  and  _95
REMARK   39  A    between atoms: _98  and  _100
REMARK   40  A    between atoms: _100  and  _101
REMARK   41  A    between atoms: _103  and  _105
REMARK   42  A    between atoms: _105  and  _106
REMARK   43  A    between atoms: _105  and  _108
REMARK   44  A    between atoms: _108  and  _109
REMARK   45  A    between atoms: _113  and  _114
REMARK   46  A    between atoms: _119  and  _121
REMARK   47  A    between atoms: _121  and  _122
REMARK   48  A    between atoms: _125  and  _127
REMARK   49  A    between atoms: _127  and  _128
REMARK   50  A    between atoms: _127  and  _130
REMARK   51  A    between atoms: _130  and  _131
REMARK   52  A    between atoms: _131  and  _132
REMARK   53  A    between atoms: _135  and  _137
REMARK   54  A    between atoms: _137  and  _138
REMARK   55  A    between atoms: _137  and  _140
REMARK   56  A    between atoms: _140  and  _141
REMARK   57  A    between atoms: _143  and  _145
REMARK   58  A    between atoms: _145  and  _146
REMARK   59  A    between atoms: _145  and  _148
REMARK   60  A    between atoms: _148  and  _149
REMARK   61  A    between atoms: _154  and  _156
REMARK   62  A    between atoms: _156  and  _157
REMARK   63  A    between atoms: _156  and  _159
REMARK   64  A    between atoms: _159  and  _160
REMARK   65  A    between atoms: _165  and  _167
REMARK   66  A    between atoms: _167  and  _168
REMARK   67  A    between atoms: _167  and  _170
REMARK   68  A    between atoms: _170  and  _171
REMARK   69  A    between atoms: _171  and  _172
REMARK   70  A    between atoms: _175  and  _177
REMARK   71  A    between atoms: _177  and  _178
REMARK   72  A    between atoms: _177  and  _180
REMARK   73  A    between atoms: _180  and  _181
REMARK   74  A    between atoms: _187  and  _189
REMARK   75  A    between atoms: _189  and  _190
REMARK   76  A    between atoms: _189  and  _192
REMARK   77  A    between atoms: _192  and  _193
REMARK   78  A    between atoms: _193  and  _194
REMARK   79  A    between atoms: _194  and  _195
REMARK   80  A    between atoms: _195  and  _196
REMARK   81  A    between atoms: _200  and  _202
REMARK   82  A    between atoms: _202  and  _203
REMARK   83  A    between atoms: _202  and  _205
REMARK   84  A    between atoms: _205  and  _206
REMARK   85  A    between atoms: _206  and  _207
REMARK   86  A    between atoms: _207  and  _208
REMARK   87  A    between atoms: _217  and  _219
REMARK   88  A    between atoms: _219  and  _220
REMARK   89  A    between atoms: _219  and  _222
REMARK   90  A    between atoms: _222  and  _223
REMARK   91  A    between atoms: _223  and  _224
REMARK   92  A    between atoms: _227  and  _229
REMARK   93  A    between atoms: _229  and  _230
REMARK   94  A    between atoms: _229  and  _232
REMARK   95  A    between atoms: _232  and  _233
REMARK   96  A    between atoms: _239  and  _241
REMARK   97  A    between atoms: _241  and  _242
REMARK   98  A    between atoms: _241  and  _244
REMARK   99  A    between atoms: _244  and  _245
REMARK  100  A    between atoms: _249  and  _250
REMARK  101  A    between atoms: _255  and  _257
REMARK  102  A    between atoms: _257  and  _258
REMARK  103  A    between atoms: _257  and  _260
REMARK  104  A    between atoms: _260  and  _261
REMARK  105  A    between atoms: _266  and  _267
REMARK  106  A    between atoms: _269  and  _271
REMARK  107  A    between atoms: _271  and  _272
REMARK  108  A    between atoms: _275  and  _277
REMARK  109  A    between atoms: _277  and  _278
REMARK  110  A    between atoms: _277  and  _280
REMARK  111  A    between atoms: _280  and  _281
REMARK  112  A    between atoms: _286  and  _290
REMARK  113  A    between atoms: _290  and  _291
REMARK  114  A    between atoms: _290  and  _293
REMARK  115  A    between atoms: _293  and  _294
REMARK  116  A    between atoms: _294  and  _295
REMARK                            x       y       z     vdW  Elec       q    Type
REMARK                         _______ _______ _______ _____ _____    ______ ____
ROOT
ATOM      1  CA  ALA A   1      43.775  43.639  23.073  0.00  0.00    +0.133 C 
ATOM      2  CB  ALA A   1      44.584  42.587  23.821  0.00  0.00    +0.027 C 
ENDROOT
BRANCH   1   3
ATOM      3  N   ALA A   1      44.583  44.235  22.016  0.00  0.00    -0.239 NA
ATOM      4  H   ALA A   1      45.619  44.158  22.057  0.00  0.00    +0.142 HD
ENDBRANCH   1   3
BRANCH   1   5
ATOM      5  C   ALA A   1      43.307  44.728  24.039  0.00  0.00    +0.224 C 
ATOM      6  O   ALA A   1      44.064  45.639  24.369  0.00  0.00    -0.287 OA
ENDBRANCH   1   5
TORSDOF 2
REMARK  Name = ../refined-set-2016/1ogd/1ogd_pocket.pdb
REMARK  116 active torsions:
REMARK  status: ('A' for Active; 'I' for Inactive)
REMARK    1  A    between atoms: _1  and  _3
REMARK    2  A    between atoms: _3  and  _4
REMARK    3  A    between atoms: _6  and  _8
REMARK    4  A    between atoms: _8  and  _9
REMARK    5  A    between atoms: _8  and  _11
REMARK    6  A    between atoms: _11  and  _12
REMARK    7  A    between atoms: _17  and  _19
REMARK    8  A    between atoms: _19  and  _20
REMARK    9  A    between atoms: _19  and  _22
REMARK   10  A    between atoms: _22  and  _23
REMARK   11  A    between atoms: _26  and  _28
REMARK   12  A    between atoms: _28  and  _29
REMARK   13  A    between atoms: _28  and  _31
REMARK   14  A    between atoms: _31  and  _32
REMARK   15  A    between atoms: _32  and  _33
REMARK   16  A    between atoms: _36  and  _38
REMARK   17  A    between atoms: _38  and  _39
REMARK   18  A    between atoms: _42  and  _44
REMARK   19  A    between atoms: _44  and  _45
REMARK   20  A    between atoms: _47  and  _49
REMARK   21  A    between atoms: _49  and  _50
REMARK   22  A    between atoms: _49  and  _52
REMARK   23  A    between atoms: _55  and  _57
REMARK   24  A    between atoms: _57  and  _58
REMARK   25  A    between atoms: _57  and  _60
REMARK   26  A    between atoms: _60  and  _61
REMARK   27  A    between atoms: _64  and  _66
REMARK   28  A    between atoms: _66  and  _67
REMARK   29  A    between atoms: _66  and  _69
REMARK   30  A    between atoms: _69  and  _70
REMARK   31  A    between atoms: _77  and  _79
REMARK   32  A    between atoms: _79  and  _80
REMARK   33  A    between atoms: _83  and  _85
REMARK   34  A    between atoms: _85  and  _86
REMARK   35  A    between atoms: _85  and  _88
REMARK   36  A    between atoms: _88  and  _89
REMARK   37  A    between atoms: _92  and  _94
REMARK   38  A    between atoms: _94  and  _95
REMARK   39  A    between atoms: _98  and  _100
REMARK   40  A    between atoms: _100  and  _101
REMARK   41  A    between atoms: _103  and  _105
REMARK   42  A    between atoms: _105  and  _106
REMARK   43  A    between atoms: _105  and  _108
REMARK   44  A    between atoms: _108  and  _109
REMARK   45  A    between atoms: _113  and  _114
REMARK   46  A    between atoms: _119  and  _121
REMARK   47  A    between atoms: _121  and  _122
REMARK   48  A    between atoms: _125  and  _127
REMARK   49  A    between atoms: _127  and  _128
REMARK   50  A    between atoms: _127  and  _130
REMARK   51  A    between atoms: _130  and  _131
REMARK   52  A    between atoms: _131  and  _132
REMARK   53  A    between atoms: _135  and  _137
REMARK   54  A    between atoms: _137  and  _138
REMARK   55  A    between atoms: _137  and  _140
REMARK   56  A    between atoms: _140  and  _141
REMARK   57  A    between atoms: _143  and  _145
REMARK   58  A    between atoms: _145  and  _146
REMARK   59  A    between atoms: _145  and  _148
REMARK   60  A    between atoms: _148  and  _149
REMARK   61  A    between atoms: _154  and  _156
REMARK   62  A    between atoms: _156  and  _157
REMARK   63  A    between atoms: _156  and  _159
REMARK   64  A    between atoms: _159  and  _160
REMARK   65  A    between atoms: _165  and  _167
REMARK   66  A    between atoms: _167  and  _168
REMARK   67  A    between atoms: _167  and  _170
REMARK   68  A    between atoms: _170  and  _171
REMARK   69  A    between atoms: _171  and  _172
REMARK   70  A    between atoms: _175  and  _177
REMARK   71  A    between atoms: _177  and  _178
REMARK   72  A    between atoms: _177  and  _180
REMARK   73  A    between atoms: _180  and  _181
REMARK   74  A    between atoms: _187  and  _189
REMARK   75  A    between atoms: _189  and  _190
REMARK   76  A    between atoms: _189  and  _192
REMARK   77  A    between atoms: _192  and  _193
REMARK   78  A    between atoms: _193  and  _194
REMARK   79  A    between atoms: _194  and  _195
REMARK   80  A    between atoms: _195  and  _196
REMARK   81  A    between atoms: _200  and  _202
REMARK   82  A    between atoms: _202  and  _203
REMARK   83  A    between atoms: _202  and  _205
REMARK   84  A    between atoms: _205  and  _206
REMARK   85  A    between atoms: _206  and  _207
REMARK   86  A    between atoms: _207  and  _208
REMARK   87  A    between atoms: _217  and  _219
REMARK   88  A    between atoms: _219  and  _220
REMARK   89  A    between atoms: _219  and  _222
REMARK   90  A    between atoms: _222  and  _223
REMARK   91  A    between atoms: _223  and  _224
REMARK   92  A    between atoms: _227  and  _229
REMARK   93  A    between atoms: _229  and  _230
REMARK   94  A    between atoms: _229  and  _232
REMARK   95  A    between atoms: _232  and  _233
REMARK   96  A    between atoms: _239  and  _241
REMARK   97  A    between atoms: _241  and  _242
REMARK   98  A    between atoms: _241  and  _244
REMARK   99  A    between atoms: _244  and  _245
REMARK  100  A    between atoms: _249  and  _250
REMARK  101  A    between atoms: _255  and  _257
REMARK  102  A    between atoms: _257  and  _258
REMARK  103  A    between atoms: _257  and  _260
REMARK  104  A    between atoms: _260  and  _261
REMARK  105  A    between atoms: _266  and  _267
REMARK  106  A    between atoms: _269  and  _271
REMARK  107  A    between atoms: _271  and  _272
REMARK  108  A    between atoms: _275  and  _277
REMARK  109  A    between atoms: _277  and  _278
REMARK  110  A    between atoms: _277  and  _280
REMARK  111  A    between atoms: _280  and  _281
REMARK  112  A    between atoms: _286  and  _290
REMARK  113  A    between atoms: _290  and  _291
REMARK  114  A    between atoms: _290  and  _293
REMARK  115  A    between atoms: _293  and  _294
REMARK  116  A    between atoms: _294  and  _295
REMARK                            x       y       z     vdW  Elec       q    Type
REMARK                         _______ _______ _______ _____ _____    ______ ____
ROOT
ATOM      1  CA  GLU A   1      43.594  44.480  28.387  0.00  0.00    +0.134 C 
ENDROOT
BRANCH   1   2
ATOM      2  N   GLU A   1      42.810  44.533  27.156  0.00  0.00    -0.239 NA
ATOM      3  H   GLU A   1      42.642  43.656  26.623  0.00  0.00    +0.142 HD
ENDBRANCH   1   2
BRANCH   1   4
ATOM      4  C   GLU A   1      44.776  45.451  28.430  0.00  0.00    +0.224 C 
ATOM      5  O   GLU A   1      45.243  45.811  29.513  0.00  0.00    -0.287 OA
ENDBRANCH   1   4
BRANCH   1   6
ATOM      6  CB  GLU A   1      44.122  43.060  28.627  0.00  0.00    +0.037 C 
BRANCH   6   7
ATOM      7  CG  GLU A   1      43.068  42.009  28.952  0.00  0.00    +0.116 C 
BRANCH   7   8
ATOM      8  CD  GLU A   1      42.323  41.499  27.728  0.00  0.00    +0.365 C 
ATOM      9  OE2 GLU A   1      41.511  40.562  27.881  0.00  0.00    -0.246 OA
ATOM     10  OE1 GLU A   1      42.543  42.027  26.618  0.00  0.00    -0.246 OA
ENDBRANCH   7   8
ENDBRANCH   6   7
ENDBRANCH   1   6
TORSDOF 5
REMARK  Name = ../refined-set-2016/1ogd/1ogd_pocket.pdb
REMARK  116 active torsions:
REMARK  status: ('A' for Active; 'I' for Inactive)
REMARK    1  A    between atoms: _1  and  _3
REMARK    2  A    between atoms: _3  and  _4
REMARK    3  A    between atoms: _6  and  _8
REMARK    4  A    between atoms: _8  and  _9
REMARK    5  A    between atoms: _8  and  _11
REMARK    6  A    between atoms: _11  and  _12
REMARK    7  A    between atoms: _17  and  _19
REMARK    8  A    between atoms: _19  and  _20
REMARK    9  A    between atoms: _19  and  _22
REMARK   10  A    between atoms: _22  and  _23
REMARK   11  A    between atoms: _26  and  _28
REMARK   12  A    between atoms: _28  and  _29
REMARK   13  A    between atoms: _28  and  _31
REMARK   14  A    between atoms: _31  and  _32
REMARK   15  A    between atoms: _32  and  _33
REMARK   16  A    between atoms: _36  and  _38
REMARK   17  A    between atoms: _38  and  _39
REMARK   18  A    between atoms: _42  and  _44
REMARK   19  A    between atoms: _44  and  _45
REMARK   20  A    between atoms: _47  and  _49
REMARK   21  A    between atoms: _49  and  _50
REMARK   22  A    between atoms: _49  and  _52
REMARK   23  A    between atoms: _55  and  _57
REMARK   24  A    between atoms: _57  and  _58
REMARK   25  A    between atoms: _57  and  _60
REMARK   26  A    between atoms: _60  and  _61
REMARK   27  A    between atoms: _64  and  _66
REMARK   28  A    between atoms: _66  and  _67
REMARK   29  A    between atoms: _66  and  _69
REMARK   30  A    between atoms: _69  and  _70
REMARK   31  A    between atoms: _77  and  _79
REMARK   32  A    between atoms: _79  and  _80
REMARK   33  A    between atoms: _83  and  _85
REMARK   34  A    between atoms: _85  and  _86
REMARK   35  A    between atoms: _85  and  _88
REMARK   36  A    between atoms: _88  and  _89
REMARK   37  A    between atoms: _92  and  _94
REMARK   38  A    between atoms: _94  and  _95
REMARK   39  A    between atoms: _98  and  _100
REMARK   40  A    between atoms: _100  and  _101
REMARK   41  A    between atoms: _103  and  _105
REMARK   42  A    between atoms: _105  and  _106
REMARK   43  A    between atoms: _105  and  _108
REMARK   44  A    between atoms: _108  and  _109
REMARK   45  A    between atoms: _113  and  _114
REMARK   46  A    between atoms: _119  and  _121
REMARK   47  A    between atoms: _121  and  _122
REMARK   48  A    between atoms: _125  and  _127
REMARK   49  A    between atoms: _127  and  _128
REMARK   50  A    between atoms: _127  and  _130
REMARK   51  A    between atoms: _130  and  _131
REMARK   52  A    between atoms: _131  and  _132
REMARK   53  A    between atoms: _135  and  _137
REMARK   54  A    between atoms: _137  and  _138
REMARK   55  A    between atoms: _137  and  _140
REMARK   56  A    between atoms: _140  and  _141
REMARK   57  A    between atoms: _143  and  _145
REMARK   58  A    between atoms: _145  and  _146
REMARK   59  A    between atoms: _145  and  _148
REMARK   60  A    between atoms: _148  and  _149
REMARK   61  A    between atoms: _154  and  _156
REMARK   62  A    between atoms: _156  and  _157
REMARK   63  A    between atoms: _156  and  _159
REMARK   64  A    between atoms: _159  and  _160
REMARK   65  A    between atoms: _165  and  _167
REMARK   66  A    between atoms: _167  and  _168
REMARK   67  A    between atoms: _167  and  _170
REMARK   68  A    between atoms: _170  and  _171
REMARK   69  A    between atoms: _171  and  _172
REMARK   70  A    between atoms: _175  and  _177
REMARK   71  A    between atoms: _177  and  _178
REMARK   72  A    between atoms: _177  and  _180
REMARK   73  A    between atoms: _180  and  _181
REMARK   74  A    between atoms: _187  and  _189
REMARK   75  A    between atoms: _189  and  _190
REMARK   76  A    between atoms: _189  and  _192
REMARK   77  A    between atoms: _192  and  _193
REMARK   78  A    between atoms: _193  and  _194
REMARK   79  A    between atoms: _194  and  _195
REMARK   80  A    between atoms: _195  and  _196
REMARK   81  A    between atoms: _200  and  _202
REMARK   82  A    between atoms: _202  and  _203
REMARK   83  A    between atoms: _202  and  _205
REMARK   84  A    between atoms: _205  and  _206
REMARK   85  A    between atoms: _206  and  _207
REMARK   86  A    between atoms: _207  and  _208
REMARK   87  A    between atoms: _217  and  _219
REMARK   88  A    between atoms: _219  and  _220
REMARK   89  A    between atoms: _219  and  _222
REMARK   90  A    between atoms: _222  and  _223
REMARK   91  A    between atoms: _223  and  _224
REMARK   92  A    between atoms: _227  and  _229
REMARK   93  A    between atoms: _229  and  _230
REMARK   94  A    between atoms: _229  and  _232
REMARK   95  A    between atoms: _232  and  _233
REMARK   96  A    between atoms: _239  and  _241
REMARK   97  A    between atoms: _241  and  _242
REMARK   98  A    between atoms: _241  and  _244
REMARK   99  A    between atoms: _244  and  _245
REMARK  100  A    between atoms: _249  and  _250
REMARK  101  A    between atoms: _255  and  _257
REMARK  102  A    between atoms: _257  and  _258
REMARK  103  A    between atoms: _257  and  _260
REMARK  104  A    between atoms: _260  and  _261
REMARK  105  A    between atoms: _266  and  _267
REMARK  106  A    between atoms: _269  and  _271
REMARK  107  A    between atoms: _271  and  _272
REMARK  108  A    between atoms: _275  and  _277
REMARK  109  A    between atoms: _277  and  _278
REMARK  110  A    between atoms: _277  and  _280
REMARK  111  A    between atoms: _280  and  _281
REMARK  112  A    between atoms: _286  and  _290
REMARK  113  A    between atoms: _290  and  _291
REMARK  114  A    between atoms: _290  and  _293
REMARK  115  A    between atoms: _293  and  _294
REMARK  116  A    between atoms: _294  and  _295
REMARK                            x       y       z     vdW  Elec       q    Type
REMARK                         _______ _______ _______ _____ _____    ______ ____
ROOT
ATOM      1  C   SER A   1      49.042  47.360  31.725  0.00  0.00    +0.241 C 
ATOM      2  O   SER A   1      50.129  47.149  32.265  0.00  0.00    -0.274 OA
ATOM      3  N   ASN A   2      48.910  48.131  30.652  0.00  0.00    -0.298 N 
ATOM      4  H   ASN A   2      47.963  48.296  30.255  0.00  0.00    +0.150 HD
ENDROOT
BRANCH   1   5
ATOM      5  CA  SER A   1      47.771  46.734  32.285  0.00  0.00    +0.174 C 
BRANCH   5   6
ATOM      6  N   SER A   1      46.524  47.349  31.845  0.00  0.00    -0.236 NA
ATOM      7  H   SER A   1      46.056  46.999  30.985  0.00  0.00    +0.142 HD
ENDBRANCH   5   6
BRANCH   5   8
ATOM      8  CB  SER A   1      47.755  45.245  31.939  0.00  0.00    +0.163 C 
BRANCH   8   9
ATOM      9  OG  SER A   1      46.605  44.615  32.473  0.00  0.00    -0.380 OA
ATOM     10  H   SER A   1      46.617  43.654  32.236  0.00  0.00    +0.211 HD
ENDBRANCH   8   9
ENDBRANCH   5   8
ENDBRANCH   1   5
BRANCH   3  11
ATOM     11  CA  ASN A   2      50.069  48.751  30.021  0.00  0.00    +0.146 C 
BRANCH  11  12
ATOM     12  C   ASN A   2      49.690  50.129  29.479  0.00  0.00    +0.227 C 
ATOM     13  O   ASN A   2      49.702  50.361  28.269  0.00  0.00    -0.286 OA
ENDBRANCH  11  12
BRANCH  11  14
ATOM     14  CB  ASN A   2      50.556  47.858  28.878  0.00  0.00    +0.112 C 
BRANCH  14  15
ATOM     15  CG  ASN A   2      52.010  48.081  28.539  0.00  0.00    +0.222 C 
ATOM     16  OD1 ASN A   2      52.474  49.218  28.452  0.00  0.00    -0.275 OA
ATOM     17  ND2 ASN A   2      52.738  46.991  28.332  0.00  0.00    -0.329 N 
ATOM     18 HD21 ASN A   2      52.302  46.051  28.417  0.00  0.00    +0.145 HD
ATOM     19 HD22 ASN A   2      53.745  47.077  28.085  0.00  0.00    +0.145 HD
ENDBRANCH  14  15
ENDBRANCH  11  14
ENDBRANCH   3  11
TORSDOF 8
REMARK  Name = ../refined-set-2016/1ogd/1ogd_pocket.pdb
REMARK  116 active torsions:
REMARK  status: ('A' for Active; 'I' for Inactive)
REMARK    1  A    between atoms: _1  and  _3
REMARK    2  A    between atoms: _3  and  _4
REMARK    3  A    between atoms: _6  and  _8
REMARK    4  A    between atoms: _8  and  _9
REMARK    5  A    between atoms: _8  and  _11
REMARK    6  A    between atoms: _11  and  _12
REMARK    7  A    between atoms: _17  and  _19
REMARK    8  A    between atoms: _19  and  _20
REMARK    9  A    between atoms: _19  and  _22
REMARK   10  A    between atoms: _22  and  _23
REMARK   11  A    between atoms: _26  and  _28
REMARK   12  A    between atoms: _28  and  _29
REMARK   13  A    between atoms: _28  and  _31
REMARK   14  A    between atoms: _31  and  _32
REMARK   15  A    between atoms: _32  and  _33
REMARK   16  A    between atoms: _36  and  _38
REMARK   17  A    between atoms: _38  and  _39
REMARK   18  A    between atoms: _42  and  _44
REMARK   19  A    between atoms: _44  and  _45
REMARK   20  A    between atoms: _47  and  _49
REMARK   21  A    between atoms: _49  and  _50
REMARK   22  A    between atoms: _49  and  _52
REMARK   23  A    between atoms: _55  and  _57
REMARK   24  A    between atoms: _57  and  _58
REMARK   25  A    between atoms: _57  and  _60
REMARK   26  A    between atoms: _60  and  _61
REMARK   27  A    between atoms: _64  and  _66
REMARK   28  A    between atoms: _66  and  _67
REMARK   29  A    between atoms: _66  and  _69
REMARK   30  A    between atoms: _69  and  _70
REMARK   31  A    between atoms: _77  and  _79
REMARK   32  A    between atoms: _79  and  _80
REMARK   33  A    between atoms: _83  and  _85
REMARK   34  A    between atoms: _85  and  _86
REMARK   35  A    between atoms: _85  and  _88
REMARK   36  A    between atoms: _88  and  _89
REMARK   37  A    between atoms: _92  and  _94
REMARK   38  A    between atoms: _94  and  _95
REMARK   39  A    between atoms: _98  and  _100
REMARK   40  A    between atoms: _100  and  _101
REMARK   41  A    between atoms: _103  and  _105
REMARK   42  A    between atoms: _105  and  _106
REMARK   43  A    between atoms: _105  and  _108
REMARK   44  A    between atoms: _108  and  _109
REMARK   45  A    between atoms: _113  and  _114
REMARK   46  A    between atoms: _119  and  _121
REMARK   47  A    between atoms: _121  and  _122
REMARK   48  A    between atoms: _125  and  _127
REMARK   49  A    between atoms: _127  and  _128
REMARK   50  A    between atoms: _127  and  _130
REMARK   51  A    between atoms: _130  and  _131
REMARK   52  A    between atoms: _131  and  _132
REMARK   53  A    between atoms: _135  and  _137
REMARK   54  A    between atoms: _137  and  _138
REMARK   55  A    between atoms: _137  and  _140
REMARK   56  A    between atoms: _140  and  _141
REMARK   57  A    between atoms: _143  and  _145
REMARK   58  A    between atoms: _145  and  _146
REMARK   59  A    between atoms: _145  and  _148
REMARK   60  A    between atoms: _148  and  _149
REMARK   61  A    between atoms: _154  and  _156
REMARK   62  A    between atoms: _156  and  _157
REMARK   63  A    between atoms: _156  and  _159
REMARK   64  A    between atoms: _159  and  _160
REMARK   65  A    between atoms: _165  and  _167
REMARK   66  A    between atoms: _167  and  _168
REMARK   67  A    between atoms: _167  and  _170
REMARK   68  A    between atoms: _170  and  _171
REMARK   69  A    between atoms: _171  and  _172
REMARK   70  A    between atoms: _175  and  _177
REMARK   71  A    between atoms: _177  and  _178
REMARK   72  A    between atoms: _177  and  _180
REMARK   73  A    between atoms: _180  and  _181
REMARK   74  A    between atoms: _187  and  _189
REMARK   75  A    between atoms: _189  and  _190
REMARK   76  A    between atoms: _189  and  _192
REMARK   77  A    between atoms: _192  and  _193
REMARK   78  A    between atoms: _193  and  _194
REMARK   79  A    between atoms: _194  and  _195
REMARK   80  A    between atoms: _195  and  _196
REMARK   81  A    between atoms: _200  and  _202
REMARK   82  A    between atoms: _202  and  _203
REMARK   83  A    between atoms: _202  and  _205
REMARK   84  A    between atoms: _205  and  _206
REMARK   85  A    between atoms: _206  and  _207
REMARK   86  A    between atoms: _207  and  _208
REMARK   87  A    between atoms: _217  and  _219
REMARK   88  A    between atoms: _219  and  _220
REMARK   89  A    between atoms: _219  and  _222
REMARK   90  A    between atoms: _222  and  _223
REMARK   91  A    between atoms: _223  and  _224
REMARK   92  A    between atoms: _227  and  _229
REMARK   93  A    between atoms: _229  and  _230
REMARK   94  A    between atoms: _229  and  _232
REMARK   95  A    between atoms: _232  and  _233
REMARK   96  A    between atoms: _239  and  _241
REMARK   97  A    between atoms: _241  and  _242
REMARK   98  A    between atoms: _241  and  _244
REMARK   99  A    between atoms: _244  and  _245
REMARK  100  A    between atoms: _249  and  _250
REMARK  101  A    between atoms: _255  and  _257
REMARK  102  A    between atoms: _257  and  _258
REMARK  103  A    between atoms: _257  and  _260
REMARK  104  A    between atoms: _260  and  _261
REMARK  105  A    between atoms: _266  and  _267
REMARK  106  A    between atoms: _269  and  _271
REMARK  107  A    between atoms: _271  and  _272
REMARK  108  A    between atoms: _275  and  _277
REMARK  109  A    between atoms: _277  and  _278
REMARK  110  A    between atoms: _277  and  _280
REMARK  111  A    between atoms: _280  and  _281
REMARK  112  A    between atoms: _286  and  _290
REMARK  113  A    between atoms: _290  and  _291
REMARK  114  A    between atoms: _290  and  _293
REMARK  115  A    between atoms: _293  and  _294
REMARK  116  A    between atoms: _294  and  _295
REMARK                            x       y       z     vdW  Elec       q    Type
REMARK                         _______ _______ _______ _____ _____    ______ ____
ROOT
ATOM      1  C   HIS A   1      42.958  37.765  23.613  0.00  0.00    +0.239 C 
ATOM      2  N   GLU A   2      41.982  36.999  24.090  0.00  0.00    -0.298 N 
ATOM      3  H   GLU A   2      41.403  37.343  24.882  0.00  0.00    +0.150 HD
ATOM      4  O   HIS A   1      43.679  37.421  22.674  0.00  0.00    -0.274 OA
ENDROOT
BRANCH   1   5
ATOM      5  CA  HIS A   1      43.156  39.122  24.291  0.00  0.00    +0.151 C 
BRANCH   5   6
ATOM      6  N   HIS A   1      41.890  39.724  24.695  0.00  0.00    -0.238 NA
ATOM      7  H   HIS A   1      41.712  39.922  25.700  0.00  0.00    +0.142 HD
ENDBRANCH   5   6
BRANCH   5   8
ATOM      8  CB  HIS A   1      44.081  38.962  25.499  0.00  0.00    +0.074 C 
BRANCH   8   9
ATOM      9  CG  HIS A   1      45.439  38.438  25.149  0.00  0.00    +0.082 A 
ATOM     10  CD2 HIS A   1      46.102  37.332  25.561  0.00  0.00    +0.115 A 
ATOM     11  NE2 HIS A   1      47.319  37.327  24.922  0.00  0.00    -0.221 NA
ATOM     12  CE1 HIS A   1      47.400  38.392  24.145  0.00  0.00    +0.199 A 
ATOM     13  ND1 HIS A   1      46.278  39.080  24.264  0.00  0.00    -0.227 NA
ENDBRANCH   8   9
ENDBRANCH   5   8
ENDBRANCH   1   5
BRANCH   2  14
ATOM     14  CA  GLU A   2      41.710  35.684  23.520  0.00  0.00    +0.137 C 
BRANCH  14  15
ATOM     15  C   GLU A   2      41.292  35.809  22.066  0.00  0.00    +0.227 C 
ATOM     16  O   GLU A   2      41.751  35.056  21.211  0.00  0.00    -0.286 OA
ENDBRANCH  14  15
BRANCH  14  17
ATOM     17  CB  GLU A   2      40.612  34.972  24.312  0.00  0.00    +0.039 C 
BRANCH  17  18
ATOM     18  CG  GLU A   2      41.016  34.631  25.731  0.00  0.00    +0.116 C 
BRANCH  18  19
ATOM     19  CD  GLU A   2      42.271  33.779  25.782  0.00  0.00    +0.365 C 
ATOM     20  OE2 GLU A   2      43.283  34.240  26.358  0.00  0.00    -0.246 OA
ATOM     21  OE1 GLU A   2      42.247  32.650  25.245  0.00  0.00    -0.246 OA
ENDBRANCH  18  19
ENDBRANCH  17  18
ENDBRANCH  14  17
ENDBRANCH   2  14
TORSDOF 9
REMARK  Name = ../refined-set-2016/1ogd/1ogd_pocket.pdb
REMARK  116 active torsions:
REMARK  status: ('A' for Active; 'I' for Inactive)
REMARK    1  A    between atoms: _1  and  _3
REMARK    2  A    between atoms: _3  and  _4
REMARK    3  A    between atoms: _6  and  _8
REMARK    4  A    between atoms: _8  and  _9
REMARK    5  A    between atoms: _8  and  _11
REMARK    6  A    between atoms: _11  and  _12
REMARK    7  A    between atoms: _17  and  _19
REMARK    8  A    between atoms: _19  and  _20
REMARK    9  A    between atoms: _19  and  _22
REMARK   10  A    between atoms: _22  and  _23
REMARK   11  A    between atoms: _26  and  _28
REMARK   12  A    between atoms: _28  and  _29
REMARK   13  A    between atoms: _28  and  _31
REMARK   14  A    between atoms: _31  and  _32
REMARK   15  A    between atoms: _32  and  _33
REMARK   16  A    between atoms: _36  and  _38
REMARK   17  A    between atoms: _38  and  _39
REMARK   18  A    between atoms: _42  and  _44
REMARK   19  A    between atoms: _44  and  _45
REMARK   20  A    between atoms: _47  and  _49
REMARK   21  A    between atoms: _49  and  _50
REMARK   22  A    between atoms: _49  and  _52
REMARK   23  A    between atoms: _55  and  _57
REMARK   24  A    between atoms: _57  and  _58
REMARK   25  A    between atoms: _57  and  _60
REMARK   26  A    between atoms: _60  and  _61
REMARK   27  A    between atoms: _64  and  _66
REMARK   28  A    between atoms: _66  and  _67
REMARK   29  A    between atoms: _66  and  _69
REMARK   30  A    between atoms: _69  and  _70
REMARK   31  A    between atoms: _77  and  _79
REMARK   32  A    between atoms: _79  and  _80
REMARK   33  A    between atoms: _83  and  _85
REMARK   34  A    between atoms: _85  and  _86
REMARK   35  A    between atoms: _85  and  _88
REMARK   36  A    between atoms: _88  and  _89
REMARK   37  A    between atoms: _92  and  _94
REMARK   38  A    between atoms: _94  and  _95
REMARK   39  A    between atoms: _98  and  _100
REMARK   40  A    between atoms: _100  and  _101
REMARK   41  A    between atoms: _103  and  _105
REMARK   42  A    between atoms: _105  and  _106
REMARK   43  A    between atoms: _105  and  _108
REMARK   44  A    between atoms: _108  and  _109
REMARK   45  A    between atoms: _113  and  _114
REMARK   46  A    between atoms: _119  and  _121
REMARK   47  A    between atoms: _121  and  _122
REMARK   48  A    between atoms: _125  and  _127
REMARK   49  A    between atoms: _127  and  _128
REMARK   50  A    between atoms: _127  and  _130
REMARK   51  A    between atoms: _130  and  _131
REMARK   52  A    between atoms: _131  and  _132
REMARK   53  A    between atoms: _135  and  _137
REMARK   54  A    between atoms: _137  and  _138
REMARK   55  A    between atoms: _137  and  _140
REMARK   56  A    between atoms: _140  and  _141
REMARK   57  A    between atoms: _143  and  _145
REMARK   58  A    between atoms: _145  and  _146
REMARK   59  A    between atoms: _145  and  _148
REMARK   60  A    between atoms: _148  and  _149
REMARK   61  A    between atoms: _154  and  _156
REMARK   62  A    between atoms: _156  and  _157
REMARK   63  A    between atoms: _156  and  _159
REMARK   64  A    between atoms: _159  and  _160
REMARK   65  A    between atoms: _165  and  _167
REMARK   66  A    between atoms: _167  and  _168
REMARK   67  A    between atoms: _167  and  _170
REMARK   68  A    between atoms: _170  and  _171
REMARK   69  A    between atoms: _171  and  _172
REMARK   70  A    between atoms: _175  and  _177
REMARK   71  A    between atoms: _177  and  _178
REMARK   72  A    between atoms: _177  and  _180
REMARK   73  A    between atoms: _180  and  _181
REMARK   74  A    between atoms: _187  and  _189
REMARK   75  A    between atoms: _189  and  _190
REMARK   76  A    between atoms: _189  and  _192
REMARK   77  A    between atoms: _192  and  _193
REMARK   78  A    between atoms: _193  and  _194
REMARK   79  A    between atoms: _194  and  _195
REMARK   80  A    between atoms: _195  and  _196
REMARK   81  A    between atoms: _200  and  _202
REMARK   82  A    between atoms: _202  and  _203
REMARK   83  A    between atoms: _202  and  _205
REMARK   84  A    between atoms: _205  and  _206
REMARK   85  A    between atoms: _206  and  _207
REMARK   86  A    between atoms: _207  and  _208
REMARK   87  A    between atoms: _217  and  _219
REMARK   88  A    between atoms: _219  and  _220
REMARK   89  A    between atoms: _219  and  _222
REMARK   90  A    between atoms: _222  and  _223
REMARK   91  A    between atoms: _223  and  _224
REMARK   92  A    between atoms: _227  and  _229
REMARK   93  A    between atoms: _229  and  _230
REMARK   94  A    between atoms: _229  and  _232
REMARK   95  A    between atoms: _232  and  _233
REMARK   96  A    between atoms: _239  and  _241
REMARK   97  A    between atoms: _241  and  _242
REMARK   98  A    between atoms: _241  and  _244
REMARK   99  A    between atoms: _244  and  _245
REMARK  100  A    between atoms: _249  and  _250
REMARK  101  A    between atoms: _255  and  _257
REMARK  102  A    between atoms: _257  and  _258
REMARK  103  A    between atoms: _257  and  _260
REMARK  104  A    between atoms: _260  and  _261
REMARK  105  A    between atoms: _266  and  _267
REMARK  106  A    between atoms: _269  and  _271
REMARK  107  A    between atoms: _271  and  _272
REMARK  108  A    between atoms: _275  and  _277
REMARK  109  A    between atoms: _277  and  _278
REMARK  110  A    between atoms: _277  and  _280
REMARK  111  A    between atoms: _280  and  _281
REMARK  112  A    between atoms: _286  and  _290
REMARK  113  A    between atoms: _290  and  _291
REMARK  114  A    between atoms: _290  and  _293
REMARK  115  A    between atoms: _293  and  _294
REMARK  116  A    between atoms: _294  and  _295
REMARK                            x       y       z     vdW  Elec       q    Type
REMARK                         _______ _______ _______ _____ _____    ______ ____
ROOT
ATOM      1  C   PHE A   1      43.986  37.758  18.960  0.00  0.00    +0.239 C 
ATOM      2  N   LYS A   2      44.276  36.806  19.841  0.00  0.00    -0.298 N 
ATOM      3  H   LYS A   2      43.901  36.875  20.808  0.00  0.00    +0.150 HD
ATOM      4  O   PHE A   1      44.390  37.741  17.796  0.00  0.00    -0.274 OA
ENDROOT
BRANCH   1   5
ATOM      5  CA  PHE A   1      43.110  38.898  19.477  0.00  0.00    +0.149 C 
BRANCH   5   6
ATOM      6  N   PHE A   1      41.959  38.330  20.174  0.00  0.00    -0.238 NA
ATOM      7  H   PHE A   1      41.823  38.552  21.181  0.00  0.00    +0.142 HD
ENDBRANCH   5   6
BRANCH   5   8
ATOM      8  CB  PHE A   1      43.930  39.762  20.442  0.00  0.00    +0.053 C 
BRANCH   8   9
ATOM      9  CG  PHE A   1      45.170  40.356  19.831  0.00  0.00    -0.020 A 
ATOM     10  CD2 PHE A   1      46.408  39.741  20.006  0.00  0.00    -0.004 A 
ATOM     11  CE2 PHE A   1      47.559  40.287  19.450  0.00  0.00    -0.000 A 
ATOM     12  CZ  PHE A   1      47.482  41.465  18.707  0.00  0.00    -0.000 A 
ATOM     13  CE1 PHE A   1      46.254  42.086  18.526  0.00  0.00    -0.000 A 
ATOM     14  CD1 PHE A   1      45.105  41.530  19.087  0.00  0.00    -0.004 A 
ENDBRANCH   8   9
ENDBRANCH   5   8
ENDBRANCH   1   5
BRANCH   2  15
ATOM     15  CA  LYS A   2      45.107  35.670  19.479  0.00  0.00    +0.137 C 
BRANCH  15  16
ATOM     16  C   LYS A   2      44.538  34.858  18.320  0.00  0.00    +0.227 C 
ATOM     17  O   LYS A   2      45.291  34.401  17.460  0.00  0.00    -0.286 OA
ENDBRANCH  15  16
BRANCH  15  18
ATOM     18  CB  LYS A   2      45.338  34.768  20.694  0.00  0.00    +0.028 C 
BRANCH  18  19
ATOM     19  CG  LYS A   2      46.305  35.363  21.703  0.00  0.00    -0.000 C 
BRANCH  19  20
ATOM     20  CD  LYS A   2      46.722  34.349  22.749  0.00  0.00    -0.024 C 
BRANCH  20  21
ATOM     21  CE  LYS A   2      45.559  33.952  23.633  0.00  0.00    -0.086 C 
BRANCH  21  22
ATOM     22  NZ  LYS A   2      45.995  32.941  24.638  0.00  0.00    +0.380 N 
ATOM     23  HZ1 LYS A   2      45.186  32.678  25.237  0.00  0.00    -0.089 HD
ATOM     24  HZ2 LYS A   2      46.749  33.345  25.229  0.00  0.00    -0.089 HD
ATOM     25  HZ3 LYS A   2      46.352  32.097  24.146  0.00  0.00    -0.089 HD
ENDBRANCH  21  22
ENDBRANCH  20  21
ENDBRANCH  19  20
ENDBRANCH  18  19
ENDBRANCH  15  18
ENDBRANCH   2  15
TORSDOF 11
REMARK  Name = ../refined-set-2016/1ogd/1ogd_pocket.pdb
REMARK  116 active torsions:
REMARK  status: ('A' for Active; 'I' for Inactive)
REMARK    1  A    between atoms: _1  and  _3
REMARK    2  A    between atoms: _3  and  _4
REMARK    3  A    between atoms: _6  and  _8
REMARK    4  A    between atoms: _8  and  _9
REMARK    5  A    between atoms: _8  and  _11
REMARK    6  A    between atoms: _11  and  _12
REMARK    7  A    between atoms: _17  and  _19
REMARK    8  A    between atoms: _19  and  _20
REMARK    9  A    between atoms: _19  and  _22
REMARK   10  A    between atoms: _22  and  _23
REMARK   11  A    between atoms: _26  and  _28
REMARK   12  A    between atoms: _28  and  _29
REMARK   13  A    between atoms: _28  and  _31
REMARK   14  A    between atoms: _31  and  _32
REMARK   15  A    between atoms: _32  and  _33
REMARK   16  A    between atoms: _36  and  _38
REMARK   17  A    between atoms: _38  and  _39
REMARK   18  A    between atoms: _42  and  _44
REMARK   19  A    between atoms: _44  and  _45
REMARK   20  A    between atoms: _47  and  _49
REMARK   21  A    between atoms: _49  and  _50
REMARK   22  A    between atoms: _49  and  _52
REMARK   23  A    between atoms: _55  and  _57
REMARK   24  A    between atoms: _57  and  _58
REMARK   25  A    between atoms: _57  and  _60
REMARK   26  A    between atoms: _60  and  _61
REMARK   27  A    between atoms: _64  and  _66
REMARK   28  A    between atoms: _66  and  _67
REMARK   29  A    between atoms: _66  and  _69
REMARK   30  A    between atoms: _69  and  _70
REMARK   31  A    between atoms: _77  and  _79
REMARK   32  A    between atoms: _79  and  _80
REMARK   33  A    between atoms: _83  and  _85
REMARK   34  A    between atoms: _85  and  _86
REMARK   35  A    between atoms: _85  and  _88
REMARK   36  A    between atoms: _88  and  _89
REMARK   37  A    between atoms: _92  and  _94
REMARK   38  A    between atoms: _94  and  _95
REMARK   39  A    between atoms: _98  and  _100
REMARK   40  A    between atoms: _100  and  _101
REMARK   41  A    between atoms: _103  and  _105
REMARK   42  A    between atoms: _105  and  _106
REMARK   43  A    between atoms: _105  and  _108
REMARK   44  A    between atoms: _108  and  _109
REMARK   45  A    between atoms: _113  and  _114
REMARK   46  A    between atoms: _119  and  _121
REMARK   47  A    between atoms: _121  and  _122
REMARK   48  A    between atoms: _125  and  _127
REMARK   49  A    between atoms: _127  and  _128
REMARK   50  A    between atoms: _127  and  _130
REMARK   51  A    between atoms: _130  and  _131
REMARK   52  A    between atoms: _131  and  _132
REMARK   53  A    between atoms: _135  and  _137
REMARK   54  A    between atoms: _137  and  _138
REMARK   55  A    between atoms: _137  and  _140
REMARK   56  A    between atoms: _140  and  _141
REMARK   57  A    between atoms: _143  and  _145
REMARK   58  A    between atoms: _145  and  _146
REMARK   59  A    between atoms: _145  and  _148
REMARK   60  A    between atoms: _148  and  _149
REMARK   61  A    between atoms: _154  and  _156
REMARK   62  A    between atoms: _156  and  _157
REMARK   63  A    between atoms: _156  and  _159
REMARK   64  A    between atoms: _159  and  _160
REMARK   65  A    between atoms: _165  and  _167
REMARK   66  A    between atoms: _167  and  _168
REMARK   67  A    between atoms: _167  and  _170
REMARK   68  A    between atoms: _170  and  _171
REMARK   69  A    between atoms: _171  and  _172
REMARK   70  A    between atoms: _175  and  _177
REMARK   71  A    between atoms: _177  and  _178
REMARK   72  A    between atoms: _177  and  _180
REMARK   73  A    between atoms: _180  and  _181
REMARK   74  A    between atoms: _187  and  _189
REMARK   75  A    between atoms: _189  and  _190
REMARK   76  A    between atoms: _189  and  _192
REMARK   77  A    between atoms: _192  and  _193
REMARK   78  A    between atoms: _193  and  _194
REMARK   79  A    between atoms: _194  and  _195
REMARK   80  A    between atoms: _195  and  _196
REMARK   81  A    between atoms: _200  and  _202
REMARK   82  A    between atoms: _202  and  _203
REMARK   83  A    between atoms: _202  and  _205
REMARK   84  A    between atoms: _205  and  _206
REMARK   85  A    between atoms: _206  and  _207
REMARK   86  A    between atoms: _207  and  _208
REMARK   87  A    between atoms: _217  and  _219
REMARK   88  A    between atoms: _219  and  _220
REMARK   89  A    between atoms: _219  and  _222
REMARK   90  A    between atoms: _222  and  _223
REMARK   91  A    between atoms: _223  and  _224
REMARK   92  A    between atoms: _227  and  _229
REMARK   93  A    between atoms: _229  and  _230
REMARK   94  A    between atoms: _229  and  _232
REMARK   95  A    between atoms: _232  and  _233
REMARK   96  A    between atoms: _239  and  _241
REMARK   97  A    between atoms: _241  and  _242
REMARK   98  A    between atoms: _241  and  _244
REMARK   99  A    between atoms: _244  and  _245
REMARK  100  A    between atoms: _249  and  _250
REMARK  101  A    between atoms: _255  and  _257
REMARK  102  A    between atoms: _257  and  _258
REMARK  103  A    between atoms: _257  and  _260
REMARK  104  A    between atoms: _260  and  _261
REMARK  105  A    between atoms: _266  and  _267
REMARK  106  A    between atoms: _269  and  _271
REMARK  107  A    between atoms: _271  and  _272
REMARK  108  A    between atoms: _275  and  _277
REMARK  109  A    between atoms: _277  and  _278
REMARK  110  A    between atoms: _277  and  _280
REMARK  111  A    between atoms: _280  and  _281
REMARK  112  A    between atoms: _286  and  _290
REMARK  113  A    between atoms: _290  and  _291
REMARK  114  A    between atoms: _290  and  _293
REMARK  115  A    between atoms: _293  and  _294
REMARK  116  A    between atoms: _294  and  _295
REMARK                            x       y       z     vdW  Elec       q    Type
REMARK                         _______ _______ _______ _____ _____    ______ ____
ROOT
ATOM      1  NE  ARG A   1      59.915  36.105  21.514  0.00  0.00    -0.265 N 
ATOM      2  CZ  ARG A   1      61.005  35.771  22.201  0.00  0.00    +0.342 C 
ATOM      3  NH2 ARG A   1      60.915  35.520  23.502  0.00  0.00    -0.292 N 
ATOM      4 HH21 ARG A   1      61.765  35.259  24.041  0.00  0.00    +0.255 HD
ATOM      5 HH22 ARG A   1      59.994  35.585  23.982  0.00  0.00    +0.255 HD
ATOM      6  NH1 ARG A   1      62.183  35.685  21.598  0.00  0.00    -0.292 N 
ATOM      7 HH11 ARG A   1      63.029  35.423  22.144  0.00  0.00    +0.255 HD
ATOM      8 HH12 ARG A   1      62.261  35.879  20.579  0.00  0.00    +0.255 HD
ATOM      9  HE  ARG A   1      59.016  36.160  22.034  0.00  0.00    +0.259 HD
ENDROOT
BRANCH   1  10
ATOM     10  CD  ARG A   1      59.888  36.400  20.083  0.00  0.00    +0.174 C 
BRANCH  10  11
ATOM     11  CG  ARG A   1      59.462  37.829  19.796  0.00  0.00    +0.045 C 
BRANCH  11  12
ATOM     12  CB  ARG A   1      59.332  38.079  18.304  0.00  0.00    +0.029 C 
BRANCH  12  13
ATOM     13  CA  ARG A   1      58.781  39.458  17.932  0.00  0.00    +0.133 C 
BRANCH  13  14
ATOM     14  N   ARG A   1      58.546  39.528  16.497  0.00  0.00    -0.239 NA
ATOM     15  H   ARG A   1      59.135  38.962  15.853  0.00  0.00    +0.142 HD
ENDBRANCH  13  14
BRANCH  13  16
ATOM     16  C   ARG A   1      59.769  40.548  18.341  0.00  0.00    +0.224 C 
ATOM     17  O   ARG A   1      60.845  40.669  17.761  0.00  0.00    -0.287 OA
ENDBRANCH  13  16
ENDBRANCH  12  13
ENDBRANCH  11  12
ENDBRANCH  10  11
ENDBRANCH   1  10
TORSDOF 6
REMARK  Name = ../refined-set-2016/1ogd/1ogd_pocket.pdb
REMARK  116 active torsions:
REMARK  status: ('A' for Active; 'I' for Inactive)
REMARK    1  A    between atoms: _1  and  _3
REMARK    2  A    between atoms: _3  and  _4
REMARK    3  A    between atoms: _6  and  _8
REMARK    4  A    between atoms: _8  and  _9
REMARK    5  A    between atoms: _8  and  _11
REMARK    6  A    between atoms: _11  and  _12
REMARK    7  A    between atoms: _17  and  _19
REMARK    8  A    between atoms: _19  and  _20
REMARK    9  A    between atoms: _19  and  _22
REMARK   10  A    between atoms: _22  and  _23
REMARK   11  A    between atoms: _26  and  _28
REMARK   12  A    between atoms: _28  and  _29
REMARK   13  A    between atoms: _28  and  _31
REMARK   14  A    between atoms: _31  and  _32
REMARK   15  A    between atoms: _32  and  _33
REMARK   16  A    between atoms: _36  and  _38
REMARK   17  A    between atoms: _38  and  _39
REMARK   18  A    between atoms: _42  and  _44
REMARK   19  A    between atoms: _44  and  _45
REMARK   20  A    between atoms: _47  and  _49
REMARK   21  A    between atoms: _49  and  _50
REMARK   22  A    between atoms: _49  and  _52
REMARK   23  A    between atoms: _55  and  _57
REMARK   24  A    between atoms: _57  and  _58
REMARK   25  A    between atoms: _57  and  _60
REMARK   26  A    between atoms: _60  and  _61
REMARK   27  A    between atoms: _64  and  _66
REMARK   28  A    between atoms: _66  and  _67
REMARK   29  A    between atoms: _66  and  _69
REMARK   30  A    between atoms: _69  and  _70
REMARK   31  A    between atoms: _77  and  _79
REMARK   32  A    between atoms: _79  and  _80
REMARK   33  A    between atoms: _83  and  _85
REMARK   34  A    between atoms: _85  and  _86
REMARK   35  A    between atoms: _85  and  _88
REMARK   36  A    between atoms: _88  and  _89
REMARK   37  A    between atoms: _92  and  _94
REMARK   38  A    between atoms: _94  and  _95
REMARK   39  A    between atoms: _98  and  _100
REMARK   40  A    between atoms: _100  and  _101
REMARK   41  A    between atoms: _103  and  _105
REMARK   42  A    between atoms: _105  and  _106
REMARK   43  A    between atoms: _105  and  _108
REMARK   44  A    between atoms: _108  and  _109
REMARK   45  A    between atoms: _113  and  _114
REMARK   46  A    between atoms: _119  and  _121
REMARK   47  A    between atoms: _121  and  _122
REMARK   48  A    between atoms: _125  and  _127
REMARK   49  A    between atoms: _127  and  _128
REMARK   50  A    between atoms: _127  and  _130
REMARK   51  A    between atoms: _130  and  _131
REMARK   52  A    between atoms: _131  and  _132
REMARK   53  A    between atoms: _135  and  _137
REMARK   54  A    between atoms: _137  and  _138
REMARK   55  A    between atoms: _137  and  _140
REMARK   56  A    between atoms: _140  and  _141
REMARK   57  A    between atoms: _143  and  _145
REMARK   58  A    between atoms: _145  and  _146
REMARK   59  A    between atoms: _145  and  _148
REMARK   60  A    between atoms: _148  and  _149
REMARK   61  A    between atoms: _154  and  _156
REMARK   62  A    between atoms: _156  and  _157
REMARK   63  A    between atoms: _156  and  _159
REMARK   64  A    between atoms: _159  and  _160
REMARK   65  A    between atoms: _165  and  _167
REMARK   66  A    between atoms: _167  and  _168
REMARK   67  A    between atoms: _167  and  _170
REMARK   68  A    between atoms: _170  and  _171
REMARK   69  A    between atoms: _171  and  _172
REMARK   70  A    between atoms: _175  and  _177
REMARK   71  A    between atoms: _177  and  _178
REMARK   72  A    between atoms: _177  and  _180
REMARK   73  A    between atoms: _180  and  _181
REMARK   74  A    between atoms: _187  and  _189
REMARK   75  A    between atoms: _189  and  _190
REMARK   76  A    between atoms: _189  and  _192
REMARK   77  A    between atoms: _192  and  _193
REMARK   78  A    between atoms: _193  and  _194
REMARK   79  A    between atoms: _194  and  _195
REMARK   80  A    between atoms: _195  and  _196
REMARK   81  A    between atoms: _200  and  _202
REMARK   82  A    between atoms: _202  and  _203
REMARK   83  A    between atoms: _202  and  _205
REMARK   84  A    between atoms: _205  and  _206
REMARK   85  A    between atoms: _206  and  _207
REMARK   86  A    between atoms: _207  and  _208
REMARK   87  A    between atoms: _217  and  _219
REMARK   88  A    between atoms: _219  and  _220
REMARK   89  A    between atoms: _219  and  _222
REMARK   90  A    between atoms: _222  and  _223
REMARK   91  A    between atoms: _223  and  _224
REMARK   92  A    between atoms: _227  and  _229
REMARK   93  A    between atoms: _229  and  _230
REMARK   94  A    between atoms: _229  and  _232
REMARK   95  A    between atoms: _232  and  _233
REMARK   96  A    between atoms: _239  and  _241
REMARK   97  A    between atoms: _241  and  _242
REMARK   98  A    between atoms: _241  and  _244
REMARK   99  A    between atoms: _244  and  _245
REMARK  100  A    between atoms: _249  and  _250
REMARK  101  A    between atoms: _255  and  _257
REMARK  102  A    between atoms: _257  and  _258
REMARK  103  A    between atoms: _257  and  _260
REMARK  104  A    between atoms: _260  and  _261
REMARK  105  A    between atoms: _266  and  _267
REMARK  106  A    between atoms: _269  and  _271
REMARK  107  A    between atoms: _271  and  _272
REMARK  108  A    between atoms: _275  and  _277
REMARK  109  A    between atoms: _277  and  _278
REMARK  110  A    between atoms: _277  and  _280
REMARK  111  A    between atoms: _280  and  _281
REMARK  112  A    between atoms: _286  and  _290
REMARK  113  A    between atoms: _290  and  _291
REMARK  114  A    between atoms: _290  and  _293
REMARK  115  A    between atoms: _293  and  _294
REMARK  116  A    between atoms: _294  and  _295
REMARK                            x       y       z     vdW  Elec       q    Type
REMARK                         _______ _______ _______ _____ _____    ______ ____
ROOT
ATOM      1  C   THR A   3      54.182  43.705  28.780  0.00  0.00    +0.246 C 
ATOM      2  N   PRO A   4      53.195  43.354  29.618  0.00  0.00    -0.272 N 
ATOM      3  CD  PRO A   4      53.120  43.762  31.032  0.00  0.00    +0.094 C 
ATOM      4  CG  PRO A   4      51.631  43.745  31.293  0.00  0.00    +0.024 C 
ATOM      5  CB  PRO A   4      51.185  42.552  30.520  0.00  0.00    +0.031 C 
ATOM      6  CA  PRO A   4      51.945  42.707  29.203  0.00  0.00    +0.152 C 
ATOM      7  O   THR A   3      54.101  43.523  27.568  0.00  0.00    -0.273 OA
ENDROOT
BRANCH   6   8
ATOM      8  C   PRO A   4      51.092  43.353  28.115  0.00  0.00    +0.241 C 
ATOM      9  O   PRO A   4      50.967  44.569  28.028  0.00  0.00    -0.273 OA
ATOM     10  N   TYR A   5      50.501  42.488  27.297  0.00  0.00    -0.297 N 
ATOM     11  H   TYR A   5      50.676  41.475  27.453  0.00  0.00    +0.150 HD
BRANCH  10  12
ATOM     12  CA  TYR A   5      49.623  42.866  26.195  0.00  0.00    +0.153 C 
BRANCH  12  13
ATOM     13  C   TYR A   5      50.178  43.919  25.254  0.00  0.00    +0.241 C 
ATOM     14  N   ALA A   6      51.495  43.925  25.089  0.00  0.00    -0.297 N 
ATOM     15  H   ALA A   6      52.081  43.243  25.611  0.00  0.00    +0.150 HD
ATOM     16  O   TYR A   5      49.427  44.712  24.682  0.00  0.00    -0.273 OA
BRANCH  14  17
ATOM     17  CA  ALA A   6      52.129  44.874  24.187  0.00  0.00    +0.149 C 
ATOM     18  CB  ALA A   6      53.532  45.212  24.674  0.00  0.00    +0.031 C 
BRANCH  17  19
ATOM     19  C   ALA A   6      52.189  44.245  22.791  0.00  0.00    +0.241 C 
ATOM     20  O   ALA A   6      53.271  43.971  22.275  0.00  0.00    -0.273 OA
ATOM     21  N   ASN A   7      51.016  43.999  22.207  0.00  0.00    -0.298 N 
ATOM     22  H   ASN A   7      50.142  44.227  22.723  0.00  0.00    +0.150 HD
BRANCH  21  23
ATOM     23  CA  ASN A   7      50.911  43.419  20.865  0.00  0.00    +0.146 C 
BRANCH  23  24
ATOM     24  C   ASN A   7      49.877  44.190  20.063  0.00  0.00    +0.227 C 
ATOM     25  O   ASN A   7      48.988  44.829  20.623  0.00  0.00    -0.286 OA
ENDBRANCH  23  24
BRANCH  23  26
ATOM     26  CB  ASN A   7      50.442  41.958  20.900  0.00  0.00    +0.112 C 
BRANCH  26  27
ATOM     27  CG  ASN A   7      51.154  41.132  21.939  0.00  0.00    +0.222 C 
ATOM     28  OD1 ASN A   7      50.635  40.917  23.032  0.00  0.00    -0.275 OA
ATOM     29  ND2 ASN A   7      52.346  40.663  21.610  0.00  0.00    -0.329 N 
ATOM     30 HD21 ASN A   7      52.883  40.087  22.289  0.00  0.00    +0.145 HD
ATOM     31 HD22 ASN A   7      52.746  40.871  20.673  0.00  0.00    +0.145 HD
ENDBRANCH  26  27
ENDBRANCH  23  26
ENDBRANCH  21  23
ENDBRANCH  17  19
ENDBRANCH  14  17
ENDBRANCH  12  13
BRANCH  12  32
ATOM     32  CB  TYR A   5      48.269  43.313  26.740  0.00  0.00    +0.055 C 
BRANCH  32  33
ATOM     33  CG  TYR A   5      47.677  42.316  27.701  0.00  0.00    -0.020 A 
ATOM     34  CD2 TYR A   5      47.861  42.455  29.077  0.00  0.00    -0.001 A 
ATOM     35  CE2 TYR A   5      47.350  41.520  29.964  0.00  0.00    +0.036 A 
ATOM     36  CZ  TYR A   5      46.647  40.429  29.476  0.00  0.00    +0.134 A 
ATOM     37  CE1 TYR A   5      46.453  40.268  28.111  0.00  0.00    +0.036 A 
ATOM     38  CD1 TYR A   5      46.964  41.209  27.235  0.00  0.00    -0.001 A 
BRANCH  36  39
ATOM     39  OH  TYR A   5      46.136  39.501  30.353  0.00  0.00    -0.506 OA
ATOM     40  HH  TYR A   5      46.363  39.765  31.280  0.00  0.00    +0.292 HD
ENDBRANCH  36  39
ENDBRANCH  32  33
ENDBRANCH  12  32
ENDBRANCH  10  12
ENDBRANCH   6   8
BRANCH   1  41
ATOM     41  CA  THR A   3      55.424  44.352  29.387  0.00  0.00    +0.176 C 
BRANCH  41  44
ATOM     42  C   PHE A   2      57.596  43.263  29.296  0.00  0.00    +0.241 C 
ATOM     43  O   PHE A   2      57.669  43.194  30.526  0.00  0.00    -0.273 OA
ATOM     44  N   THR A   3      56.569  43.818  28.663  0.00  0.00    -0.295 N 
ATOM     45  H   THR A   3      56.583  43.873  27.625  0.00  0.00    +0.150 HD
BRANCH  42  46
ATOM     46  CA  PHE A   2      58.718  42.707  28.427  0.00  0.00    +0.153 C 
BRANCH  46  48
ATOM     47  C   GLU A   1      58.822  43.112  26.011  0.00  0.00    +0.238 C 
ATOM     48  N   PHE A   2      59.027  43.533  27.258  0.00  0.00    -0.297 N 
ATOM     49  H   PHE A   2      59.421  44.484  27.407  0.00  0.00    +0.150 HD
ATOM     50  O   GLU A   1      58.341  42.009  25.743  0.00  0.00    -0.274 OA
BRANCH  47  51
ATOM     51  CA  GLU A   1      59.205  44.090  24.897  0.00  0.00    +0.145 C 
BRANCH  51  52
ATOM     52  N   GLU A   1      60.123  43.518  23.913  0.00  0.00    -0.238 NA
ATOM     53  H   GLU A   1      59.848  43.529  22.910  0.00  0.00    +0.142 HD
ENDBRANCH  51  52
BRANCH  51  54
ATOM     54  CB  GLU A   1      57.944  44.587  24.187  0.00  0.00    +0.038 C 
BRANCH  54  55
ATOM     55  CG  GLU A   1      57.030  45.450  25.037  0.00  0.00    +0.116 C 
BRANCH  55  56
ATOM     56  CD  GLU A   1      57.693  46.744  25.486  0.00  0.00    +0.365 C 
ATOM     57  OE2 GLU A   1      57.513  47.132  26.658  0.00  0.00    -0.246 OA
ATOM     58  OE1 GLU A   1      58.382  47.381  24.663  0.00  0.00    -0.246 OA
ENDBRANCH  55  56
ENDBRANCH  54  55
ENDBRANCH  51  54
ENDBRANCH  47  51
ENDBRANCH  46  48
BRANCH  46  59
ATOM     59  CB  PHE A   2      59.963  42.520  29.301  0.00  0.00    +0.055 C 
BRANCH  59  60
ATOM     60  CG  PHE A   2      60.663  41.210  29.097  0.00  0.00    -0.020 A 
ATOM     61  CD2 PHE A   2      60.925  40.376  30.179  0.00  0.00    -0.004 A 
ATOM     62  CE2 PHE A   2      61.583  39.158  30.002  0.00  0.00    -0.000 A 
ATOM     63  CZ  PHE A   2      61.986  38.766  28.726  0.00  0.00    -0.000 A 
ATOM     64  CE1 PHE A   2      61.730  39.592  27.637  0.00  0.00    -0.000 A 
ATOM     65  CD1 PHE A   2      61.071  40.808  27.826  0.00  0.00    -0.004 A 
ENDBRANCH  59  60
ENDBRANCH  46  59
ENDBRANCH  42  46
ENDBRANCH  41  44
BRANCH  41  66
ATOM     66  CB  THR A   3      55.356  45.897  29.286  0.00  0.00    +0.137 C 
ATOM     67  CG2 THR A   3      56.620  46.515  29.871  0.00  0.00    +0.034 C 
BRANCH  66  68
ATOM     68  OG1 THR A   3      55.235  46.295  27.918  0.00  0.00    -0.382 OA
ATOM     69  HG1 THR A   3      56.020  45.970  27.410  0.00  0.00    +0.210 HD
ENDBRANCH  66  68
ENDBRANCH  41  66
ENDBRANCH   1  41
TORSDOF 25
REMARK  Name = ../refined-set-2016/1ogd/1ogd_pocket.pdb
REMARK  116 active torsions:
REMARK  status: ('A' for Active; 'I' for Inactive)
REMARK    1  A    between atoms: _1  and  _3
REMARK    2  A    between atoms: _3  and  _4
REMARK    3  A    between atoms: _6  and  _8
REMARK    4  A    between atoms: _8  and  _9
REMARK    5  A    between atoms: _8  and  _11
REMARK    6  A    between atoms: _11  and  _12
REMARK    7  A    between atoms: _17  and  _19
REMARK    8  A    between atoms: _19  and  _20
REMARK    9  A    between atoms: _19  and  _22
REMARK   10  A    between atoms: _22  and  _23
REMARK   11  A    between atoms: _26  and  _28
REMARK   12  A    between atoms: _28  and  _29
REMARK   13  A    between atoms: _28  and  _31
REMARK   14  A    between atoms: _31  and  _32
REMARK   15  A    between atoms: _32  and  _33
REMARK   16  A    between atoms: _36  and  _38
REMARK   17  A    between atoms: _38  and  _39
REMARK   18  A    between atoms: _42  and  _44
REMARK   19  A    between atoms: _44  and  _45
REMARK   20  A    between atoms: _47  and  _49
REMARK   21  A    between atoms: _49  and  _50
REMARK   22  A    between atoms: _49  and  _52
REMARK   23  A    between atoms: _55  and  _57
REMARK   24  A    between atoms: _57  and  _58
REMARK   25  A    between atoms: _57  and  _60
REMARK   26  A    between atoms: _60  and  _61
REMARK   27  A    between atoms: _64  and  _66
REMARK   28  A    between atoms: _66  and  _67
REMARK   29  A    between atoms: _66  and  _69
REMARK   30  A    between atoms: _69  and  _70
REMARK   31  A    between atoms: _77  and  _79
REMARK   32  A    between atoms: _79  and  _80
REMARK   33  A    between atoms: _83  and  _85
REMARK   34  A    between atoms: _85  and  _86
REMARK   35  A    between atoms: _85  and  _88
REMARK   36  A    between atoms: _88  and  _89
REMARK   37  A    between atoms: _92  and  _94
REMARK   38  A    between atoms: _94  and  _95
REMARK   39  A    between atoms: _98  and  _100
REMARK   40  A    between atoms: _100  and  _101
REMARK   41  A    between atoms: _103  and  _105
REMARK   42  A    between atoms: _105  and  _106
REMARK   43  A    between atoms: _105  and  _108
REMARK   44  A    between atoms: _108  and  _109
REMARK   45  A    between atoms: _113  and  _114
REMARK   46  A    between atoms: _119  and  _121
REMARK   47  A    between atoms: _121  and  _122
REMARK   48  A    between atoms: _125  and  _127
REMARK   49  A    between atoms: _127  and  _128
REMARK   50  A    between atoms: _127  and  _130
REMARK   51  A    between atoms: _130  and  _131
REMARK   52  A    between atoms: _131  and  _132
REMARK   53  A    between atoms: _135  and  _137
REMARK   54  A    between atoms: _137  and  _138
REMARK   55  A    between atoms: _137  and  _140
REMARK   56  A    between atoms: _140  and  _141
REMARK   57  A    between atoms: _143  and  _145
REMARK   58  A    between atoms: _145  and  _146
REMARK   59  A    between atoms: _145  and  _148
REMARK   60  A    between atoms: _148  and  _149
REMARK   61  A    between atoms: _154  and  _156
REMARK   62  A    between atoms: _156  and  _157
REMARK   63  A    between atoms: _156  and  _159
REMARK   64  A    between atoms: _159  and  _160
REMARK   65  A    between atoms: _165  and  _167
REMARK   66  A    between atoms: _167  and  _168
REMARK   67  A    between atoms: _167  and  _170
REMARK   68  A    between atoms: _170  and  _171
REMARK   69  A    between atoms: _171  and  _172
REMARK   70  A    between atoms: _175  and  _177
REMARK   71  A    between atoms: _177  and  _178
REMARK   72  A    between atoms: _177  and  _180
REMARK   73  A    between atoms: _180  and  _181
REMARK   74  A    between atoms: _187  and  _189
REMARK   75  A    between atoms: _189  and  _190
REMARK   76  A    between atoms: _189  and  _192
REMARK   77  A    between atoms: _192  and  _193
REMARK   78  A    between atoms: _193  and  _194
REMARK   79  A    between atoms: _194  and  _195
REMARK   80  A    between atoms: _195  and  _196
REMARK   81  A    between atoms: _200  and  _202
REMARK   82  A    between atoms: _202  and  _203
REMARK   83  A    between atoms: _202  and  _205
REMARK   84  A    between atoms: _205  and  _206
REMARK   85  A    between atoms: _206  and  _207
REMARK   86  A    between atoms: _207  and  _208
REMARK   87  A    between atoms: _217  and  _219
REMARK   88  A    between atoms: _219  and  _220
REMARK   89  A    between atoms: _219  and  _222
REMARK   90  A    between atoms: _222  and  _223
REMARK   91  A    between atoms: _223  and  _224
REMARK   92  A    between atoms: _227  and  _229
REMARK   93  A    between atoms: _229  and  _230
REMARK   94  A    between atoms: _229  and  _232
REMARK   95  A    between atoms: _232  and  _233
REMARK   96  A    between atoms: _239  and  _241
REMARK   97  A    between atoms: _241  and  _242
REMARK   98  A    between atoms: _241  and  _244
REMARK   99  A    between atoms: _244  and  _245
REMARK  100  A    between atoms: _249  and  _250
REMARK  101  A    between atoms: _255  and  _257
REMARK  102  A    between atoms: _257  and  _258
REMARK  103  A    between atoms: _257  and  _260
REMARK  104  A    between atoms: _260  and  _261
REMARK  105  A    between atoms: _266  and  _267
REMARK  106  A    between atoms: _269  and  _271
REMARK  107  A    between atoms: _271  and  _272
REMARK  108  A    between atoms: _275  and  _277
REMARK  109  A    between atoms: _277  and  _278
REMARK  110  A    between atoms: _277  and  _280
REMARK  111  A    between atoms: _280  and  _281
REMARK  112  A    between atoms: _286  and  _290
REMARK  113  A    between atoms: _290  and  _291
REMARK  114  A    between atoms: _290  and  _293
REMARK  115  A    between atoms: _293  and  _294
REMARK  116  A    between atoms: _294  and  _295
REMARK                            x       y       z     vdW  Elec       q    Type
REMARK                         _______ _______ _______ _____ _____    ______ ____
ROOT
ATOM      1  CA  MET A   1      59.042  30.537  28.081  0.00  0.00    +0.002 C 
ENDROOT
BRANCH   1   2
ATOM      2  N   MET A   1      57.898  29.791  28.685  0.00  0.00    +0.387 N 
ATOM      3  H1  MET A   1      57.933  29.884  29.720  0.00  0.00    -0.089 HD
ATOM      4  H2  MET A   1      57.964  28.787  28.423  0.00  0.00    -0.089 HD
ATOM      5  H3  MET A   1      57.003  30.185  28.331  0.00  0.00    -0.089 HD
ENDBRANCH   1   2
BRANCH   1   6
ATOM      6  C   MET A   1      60.374  29.998  28.568  0.00  0.00    +0.185 C 
ATOM      7  O   MET A   1      60.455  29.382  29.631  0.00  0.00    -0.291 OA
ENDBRANCH   1   6
BRANCH   1   8
ATOM      8  CB  MET A   1      58.962  32.029  28.430  0.00  0.00    -0.003 C 
BRANCH   8   9
ATOM      9  CG  MET A   1      57.975  32.834  27.605  0.00  0.00    +0.056 C 
BRANCH   9  10
ATOM     10  SD  MET A   1      57.991  34.606  28.035  0.00  0.00    -0.139 S 
ATOM     11  CE  MET A   1      59.639  35.070  27.522  0.00  0.00    +0.069 C 
ENDBRANCH   9  10
ENDBRANCH   8   9
ENDBRANCH   1   8
TORSDOF 5
REMARK  Name = ../refined-set-2016/1ogd/1ogd_pocket.pdb
REMARK  116 active torsions:
REMARK  status: ('A' for Active; 'I' for Inactive)
REMARK    1  A    between atoms: _1  and  _3
REMARK    2  A    between atoms: _3  and  _4
REMARK    3  A    between atoms: _6  and  _8
REMARK    4  A    between atoms: _8  and  _9
REMARK    5  A    between atoms: _8  and  _11
REMARK    6  A    between atoms: _11  and  _12
REMARK    7  A    between atoms: _17  and  _19
REMARK    8  A    between atoms: _19  and  _20
REMARK    9  A    between atoms: _19  and  _22
REMARK   10  A    between atoms: _22  and  _23
REMARK   11  A    between atoms: _26  and  _28
REMARK   12  A    between atoms: _28  and  _29
REMARK   13  A    between atoms: _28  and  _31
REMARK   14  A    between atoms: _31  and  _32
REMARK   15  A    between atoms: _32  and  _33
REMARK   16  A    between atoms: _36  and  _38
REMARK   17  A    between atoms: _38  and  _39
REMARK   18  A    between atoms: _42  and  _44
REMARK   19  A    between atoms: _44  and  _45
REMARK   20  A    between atoms: _47  and  _49
REMARK   21  A    between atoms: _49  and  _50
REMARK   22  A    between atoms: _49  and  _52
REMARK   23  A    between atoms: _55  and  _57
REMARK   24  A    between atoms: _57  and  _58
REMARK   25  A    between atoms: _57  and  _60
REMARK   26  A    between atoms: _60  and  _61
REMARK   27  A    between atoms: _64  and  _66
REMARK   28  A    between atoms: _66  and  _67
REMARK   29  A    between atoms: _66  and  _69
REMARK   30  A    between atoms: _69  and  _70
REMARK   31  A    between atoms: _77  and  _79
REMARK   32  A    between atoms: _79  and  _80
REMARK   33  A    between atoms: _83  and  _85
REMARK   34  A    between atoms: _85  and  _86
REMARK   35  A    between atoms: _85  and  _88
REMARK   36  A    between atoms: _88  and  _89
REMARK   37  A    between atoms: _92  and  _94
REMARK   38  A    between atoms: _94  and  _95
REMARK   39  A    between atoms: _98  and  _100
REMARK   40  A    between atoms: _100  and  _101
REMARK   41  A    between atoms: _103  and  _105
REMARK   42  A    between atoms: _105  and  _106
REMARK   43  A    between atoms: _105  and  _108
REMARK   44  A    between atoms: _108  and  _109
REMARK   45  A    between atoms: _113  and  _114
REMARK   46  A    between atoms: _119  and  _121
REMARK   47  A    between atoms: _121  and  _122
REMARK   48  A    between atoms: _125  and  _127
REMARK   49  A    between atoms: _127  and  _128
REMARK   50  A    between atoms: _127  and  _130
REMARK   51  A    between atoms: _130  and  _131
REMARK   52  A    between atoms: _131  and  _132
REMARK   53  A    between atoms: _135  and  _137
REMARK   54  A    between atoms: _137  and  _138
REMARK   55  A    between atoms: _137  and  _140
REMARK   56  A    between atoms: _140  and  _141
REMARK   57  A    between atoms: _143  and  _145
REMARK   58  A    between atoms: _145  and  _146
REMARK   59  A    between atoms: _145  and  _148
REMARK   60  A    between atoms: _148  and  _149
REMARK   61  A    between atoms: _154  and  _156
REMARK   62  A    between atoms: _156  and  _157
REMARK   63  A    between atoms: _156  and  _159
REMARK   64  A    between atoms: _159  and  _160
REMARK   65  A    between atoms: _165  and  _167
REMARK   66  A    between atoms: _167  and  _168
REMARK   67  A    between atoms: _167  and  _170
REMARK   68  A    between atoms: _170  and  _171
REMARK   69  A    between atoms: _171  and  _172
REMARK   70  A    between atoms: _175  and  _177
REMARK   71  A    between atoms: _177  and  _178
REMARK   72  A    between atoms: _177  and  _180
REMARK   73  A    between atoms: _180  and  _181
REMARK   74  A    between atoms: _187  and  _189
REMARK   75  A    between atoms: _189  and  _190
REMARK   76  A    between atoms: _189  and  _192
REMARK   77  A    between atoms: _192  and  _193
REMARK   78  A    between atoms: _193  and  _194
REMARK   79  A    between atoms: _194  and  _195
REMARK   80  A    between atoms: _195  and  _196
REMARK   81  A    between atoms: _200  and  _202
REMARK   82  A    between atoms: _202  and  _203
REMARK   83  A    between atoms: _202  and  _205
REMARK   84  A    between atoms: _205  and  _206
REMARK   85  A    between atoms: _206  and  _207
REMARK   86  A    between atoms: _207  and  _208
REMARK   87  A    between atoms: _217  and  _219
REMARK   88  A    between atoms: _219  and  _220
REMARK   89  A    between atoms: _219  and  _222
REMARK   90  A    between atoms: _222  and  _223
REMARK   91  A    between atoms: _223  and  _224
REMARK   92  A    between atoms: _227  and  _229
REMARK   93  A    between atoms: _229  and  _230
REMARK   94  A    between atoms: _229  and  _232
REMARK   95  A    between atoms: _232  and  _233
REMARK   96  A    between atoms: _239  and  _241
REMARK   97  A    between atoms: _241  and  _242
REMARK   98  A    between atoms: _241  and  _244
REMARK   99  A    between atoms: _244  and  _245
REMARK  100  A    between atoms: _249  and  _250
REMARK  101  A    between atoms: _255  and  _257
REMARK  102  A    between atoms: _257  and  _258
REMARK  103  A    between atoms: _257  and  _260
REMARK  104  A    between atoms: _260  and  _261
REMARK  105  A    between atoms: _266  and  _267
REMARK  106  A    between atoms: _269  and  _271
REMARK  107  A    between atoms: _271  and  _272
REMARK  108  A    between atoms: _275  and  _277
REMARK  109  A    between atoms: _277  and  _278
REMARK  110  A    between atoms: _277  and  _280
REMARK  111  A    between atoms: _280  and  _281
REMARK  112  A    between atoms: _286  and  _290
REMARK  113  A    between atoms: _290  and  _291
REMARK  114  A    between atoms: _290  and  _293
REMARK  115  A    between atoms: _293  and  _294
REMARK  116  A    between atoms: _294  and  _295
REMARK                            x       y       z     vdW  Elec       q    Type
REMARK                         _______ _______ _______ _____ _____    ______ ____
ROOT
ATOM      1  O   HOH     1      58.071  33.682  22.886  0.00  0.00    +0.000 OA
ENDROOT
TORSDOF 0
REMARK  Name = ../refined-set-2016/1ogd/1ogd_pocket.pdb
REMARK  116 active torsions:
REMARK  status: ('A' for Active; 'I' for Inactive)
REMARK    1  A    between atoms: _1  and  _3
REMARK    2  A    between atoms: _3  and  _4
REMARK    3  A    between atoms: _6  and  _8
REMARK    4  A    between atoms: _8  and  _9
REMARK    5  A    between atoms: _8  and  _11
REMARK    6  A    between atoms: _11  and  _12
REMARK    7  A    between atoms: _17  and  _19
REMARK    8  A    between atoms: _19  and  _20
REMARK    9  A    between atoms: _19  and  _22
REMARK   10  A    between atoms: _22  and  _23
REMARK   11  A    between atoms: _26  and  _28
REMARK   12  A    between atoms: _28  and  _29
REMARK   13  A    between atoms: _28  and  _31
REMARK   14  A    between atoms: _31  and  _32
REMARK   15  A    between atoms: _32  and  _33
REMARK   16  A    between atoms: _36  and  _38
REMARK   17  A    between atoms: _38  and  _39
REMARK   18  A    between atoms: _42  and  _44
REMARK   19  A    between atoms: _44  and  _45
REMARK   20  A    between atoms: _47  and  _49
REMARK   21  A    between atoms: _49  and  _50
REMARK   22  A    between atoms: _49  and  _52
REMARK   23  A    between atoms: _55  and  _57
REMARK   24  A    between atoms: _57  and  _58
REMARK   25  A    between atoms: _57  and  _60
REMARK   26  A    between atoms: _60  and  _61
REMARK   27  A    between atoms: _64  and  _66
REMARK   28  A    between atoms: _66  and  _67
REMARK   29  A    between atoms: _66  and  _69
REMARK   30  A    between atoms: _69  and  _70
REMARK   31  A    between atoms: _77  and  _79
REMARK   32  A    between atoms: _79  and  _80
REMARK   33  A    between atoms: _83  and  _85
REMARK   34  A    between atoms: _85  and  _86
REMARK   35  A    between atoms: _85  and  _88
REMARK   36  A    between atoms: _88  and  _89
REMARK   37  A    between atoms: _92  and  _94
REMARK   38  A    between atoms: _94  and  _95
REMARK   39  A    between atoms: _98  and  _100
REMARK   40  A    between atoms: _100  and  _101
REMARK   41  A    between atoms: _103  and  _105
REMARK   42  A    between atoms: _105  and  _106
REMARK   43  A    between atoms: _105  and  _108
REMARK   44  A    between atoms: _108  and  _109
REMARK   45  A    between atoms: _113  and  _114
REMARK   46  A    between atoms: _119  and  _121
REMARK   47  A    between atoms: _121  and  _122
REMARK   48  A    between atoms: _125  and  _127
REMARK   49  A    between atoms: _127  and  _128
REMARK   50  A    between atoms: _127  and  _130
REMARK   51  A    between atoms: _130  and  _131
REMARK   52  A    between atoms: _131  and  _132
REMARK   53  A    between atoms: _135  and  _137
REMARK   54  A    between atoms: _137  and  _138
REMARK   55  A    between atoms: _137  and  _140
REMARK   56  A    between atoms: _140  and  _141
REMARK   57  A    between atoms: _143  and  _145
REMARK   58  A    between atoms: _145  and  _146
REMARK   59  A    between atoms: _145  and  _148
REMARK   60  A    between atoms: _148  and  _149
REMARK   61  A    between atoms: _154  and  _156
REMARK   62  A    between atoms: _156  and  _157
REMARK   63  A    between atoms: _156  and  _159
REMARK   64  A    between atoms: _159  and  _160
REMARK   65  A    between atoms: _165  and  _167
REMARK   66  A    between atoms: _167  and  _168
REMARK   67  A    between atoms: _167  and  _170
REMARK   68  A    between atoms: _170  and  _171
REMARK   69  A    between atoms: _171  and  _172
REMARK   70  A    between atoms: _175  and  _177
REMARK   71  A    between atoms: _177  and  _178
REMARK   72  A    between atoms: _177  and  _180
REMARK   73  A    between atoms: _180  and  _181
REMARK   74  A    between atoms: _187  and  _189
REMARK   75  A    between atoms: _189  and  _190
REMARK   76  A    between atoms: _189  and  _192
REMARK   77  A    between atoms: _192  and  _193
REMARK   78  A    between atoms: _193  and  _194
REMARK   79  A    between atoms: _194  and  _195
REMARK   80  A    between atoms: _195  and  _196
REMARK   81  A    between atoms: _200  and  _202
REMARK   82  A    between atoms: _202  and  _203
REMARK   83  A    between atoms: _202  and  _205
REMARK   84  A    between atoms: _205  and  _206
REMARK   85  A    between atoms: _206  and  _207
REMARK   86  A    between atoms: _207  and  _208
REMARK   87  A    between atoms: _217  and  _219
REMARK   88  A    between atoms: _219  and  _220
REMARK   89  A    between atoms: _219  and  _222
REMARK   90  A    between atoms: _222  and  _223
REMARK   91  A    between atoms: _223  and  _224
REMARK   92  A    between atoms: _227  and  _229
REMARK   93  A    between atoms: _229  and  _230
REMARK   94  A    between atoms: _229  and  _232
REMARK   95  A    between atoms: _232  and  _233
REMARK   96  A    between atoms: _239  and  _241
REMARK   97  A    between atoms: _241  and  _242
REMARK   98  A    between atoms: _241  and  _244
REMARK   99  A    between atoms: _244  and  _245
REMARK  100  A    between atoms: _249  and  _250
REMARK  101  A    between atoms: _255  and  _257
REMARK  102  A    between atoms: _257  and  _258
REMARK  103  A    between atoms: _257  and  _260
REMARK  104  A    between atoms: _260  and  _261
REMARK  105  A    between atoms: _266  and  _267
REMARK  106  A    between atoms: _269  and  _271
REMARK  107  A    between atoms: _271  and  _272
REMARK  108  A    between atoms: _275  and  _277
REMARK  109  A    between atoms: _277  and  _278
REMARK  110  A    between atoms: _277  and  _280
REMARK  111  A    between atoms: _280  and  _281
REMARK  112  A    between atoms: _286  and  _290
REMARK  113  A    between atoms: _290  and  _291
REMARK  114  A    between atoms: _290  and  _293
REMARK  115  A    between atoms: _293  and  _294
REMARK  116  A    between atoms: _294  and  _295
REMARK                            x       y       z     vdW  Elec       q    Type
REMARK                         _______ _______ _______ _____ _____    ______ ____
ROOT
ATOM      1  O   HOH     1      47.010  30.607  30.658  0.00  0.00    +0.000 OA
ENDROOT
TORSDOF 0
REMARK  Name = ../refined-set-2016/1ogd/1ogd_pocket.pdb
REMARK  116 active torsions:
REMARK  status: ('A' for Active; 'I' for Inactive)
REMARK    1  A    between atoms: _1  and  _3
REMARK    2  A    between atoms: _3  and  _4
REMARK    3  A    between atoms: _6  and  _8
REMARK    4  A    between atoms: _8  and  _9
REMARK    5  A    between atoms: _8  and  _11
REMARK    6  A    between atoms: _11  and  _12
REMARK    7  A    between atoms: _17  and  _19
REMARK    8  A    between atoms: _19  and  _20
REMARK    9  A    between atoms: _19  and  _22
REMARK   10  A    between atoms: _22  and  _23
REMARK   11  A    between atoms: _26  and  _28
REMARK   12  A    between atoms: _28  and  _29
REMARK   13  A    between atoms: _28  and  _31
REMARK   14  A    between atoms: _31  and  _32
REMARK   15  A    between atoms: _32  and  _33
REMARK   16  A    between atoms: _36  and  _38
REMARK   17  A    between atoms: _38  and  _39
REMARK   18  A    between atoms: _42  and  _44
REMARK   19  A    between atoms: _44  and  _45
REMARK   20  A    between atoms: _47  and  _49
REMARK   21  A    between atoms: _49  and  _50
REMARK   22  A    between atoms: _49  and  _52
REMARK   23  A    between atoms: _55  and  _57
REMARK   24  A    between atoms: _57  and  _58
REMARK   25  A    between atoms: _57  and  _60
REMARK   26  A    between atoms: _60  and  _61
REMARK   27  A    between atoms: _64  and  _66
REMARK   28  A    between atoms: _66  and  _67
REMARK   29  A    between atoms: _66  and  _69
REMARK   30  A    between atoms: _69  and  _70
REMARK   31  A    between atoms: _77  and  _79
REMARK   32  A    between atoms: _79  and  _80
REMARK   33  A    between atoms: _83  and  _85
REMARK   34  A    between atoms: _85  and  _86
REMARK   35  A    between atoms: _85  and  _88
REMARK   36  A    between atoms: _88  and  _89
REMARK   37  A    between atoms: _92  and  _94
REMARK   38  A    between atoms: _94  and  _95
REMARK   39  A    between atoms: _98  and  _100
REMARK   40  A    between atoms: _100  and  _101
REMARK   41  A    between atoms: _103  and  _105
REMARK   42  A    between atoms: _105  and  _106
REMARK   43  A    between atoms: _105  and  _108
REMARK   44  A    between atoms: _108  and  _109
REMARK   45  A    between atoms: _113  and  _114
REMARK   46  A    between atoms: _119  and  _121
REMARK   47  A    between atoms: _121  and  _122
REMARK   48  A    between atoms: _125  and  _127
REMARK   49  A    between atoms: _127  and  _128
REMARK   50  A    between atoms: _127  and  _130
REMARK   51  A    between atoms: _130  and  _131
REMARK   52  A    between atoms: _131  and  _132
REMARK   53  A    between atoms: _135  and  _137
REMARK   54  A    between atoms: _137  and  _138
REMARK   55  A    between atoms: _137  and  _140
REMARK   56  A    between atoms: _140  and  _141
REMARK   57  A    between atoms: _143  and  _145
REMARK   58  A    between atoms: _145  and  _146
REMARK   59  A    between atoms: _145  and  _148
REMARK   60  A    between atoms: _148  and  _149
REMARK   61  A    between atoms: _154  and  _156
REMARK   62  A    between atoms: _156  and  _157
REMARK   63  A    between atoms: _156  and  _159
REMARK   64  A    between atoms: _159  and  _160
REMARK   65  A    between atoms: _165  and  _167
REMARK   66  A    between atoms: _167  and  _168
REMARK   67  A    between atoms: _167  and  _170
REMARK   68  A    between atoms: _170  and  _171
REMARK   69  A    between atoms: _171  and  _172
REMARK   70  A    between atoms: _175  and  _177
REMARK   71  A    between atoms: _177  and  _178
REMARK   72  A    between atoms: _177  and  _180
REMARK   73  A    between atoms: _180  and  _181
REMARK   74  A    between atoms: _187  and  _189
REMARK   75  A    between atoms: _189  and  _190
REMARK   76  A    between atoms: _189  and  _192
REMARK   77  A    between atoms: _192  and  _193
REMARK   78  A    between atoms: _193  and  _194
REMARK   79  A    between atoms: _194  and  _195
REMARK   80  A    between atoms: _195  and  _196
REMARK   81  A    between atoms: _200  and  _202
REMARK   82  A    between atoms: _202  and  _203
REMARK   83  A    between atoms: _202  and  _205
REMARK   84  A    between atoms: _205  and  _206
REMARK   85  A    between atoms: _206  and  _207
REMARK   86  A    between atoms: _207  and  _208
REMARK   87  A    between atoms: _217  and  _219
REMARK   88  A    between atoms: _219  and  _220
REMARK   89  A    between atoms: _219  and  _222
REMARK   90  A    between atoms: _222  and  _223
REMARK   91  A    between atoms: _223  and  _224
REMARK   92  A    between atoms: _227  and  _229
REMARK   93  A    between atoms: _229  and  _230
REMARK   94  A    between atoms: _229  and  _232
REMARK   95  A    between atoms: _232  and  _233
REMARK   96  A    between atoms: _239  and  _241
REMARK   97  A    between atoms: _241  and  _242
REMARK   98  A    between atoms: _241  and  _244
REMARK   99  A    between atoms: _244  and  _245
REMARK  100  A    between atoms: _249  and  _250
REMARK  101  A    between atoms: _255  and  _257
REMARK  102  A    between atoms: _257  and  _258
REMARK  103  A    between atoms: _257  and  _260
REMARK  104  A    between atoms: _260  and  _261
REMARK  105  A    between atoms: _266  and  _267
REMARK  106  A    between atoms: _269  and  _271
REMARK  107  A    between atoms: _271  and  _272
REMARK  108  A    between atoms: _275  and  _277
REMARK  109  A    between atoms: _277  and  _278
REMARK  110  A    between atoms: _277  and  _280
REMARK  111  A    between atoms: _280  and  _281
REMARK  112  A    between atoms: _286  and  _290
REMARK  113  A    between atoms: _290  and  _291
REMARK  114  A    between atoms: _290  and  _293
REMARK  115  A    between atoms: _293  and  _294
REMARK  116  A    between atoms: _294  and  _295
REMARK                            x       y       z     vdW  Elec       q    Type
REMARK                         _______ _______ _______ _____ _____    ______ ____
ROOT
ATOM      1  O   HOH     1      47.720  31.702  19.439  0.00  0.00    +0.000 OA
ENDROOT
TORSDOF 0
REMARK  Name = ../refined-set-2016/1ogd/1ogd_pocket.pdb
REMARK  116 active torsions:
REMARK  status: ('A' for Active; 'I' for Inactive)
REMARK    1  A    between atoms: _1  and  _3
REMARK    2  A    between atoms: _3  and  _4
REMARK    3  A    between atoms: _6  and  _8
REMARK    4  A    between atoms: _8  and  _9
REMARK    5  A    between atoms: _8  and  _11
REMARK    6  A    between atoms: _11  and  _12
REMARK    7  A    between atoms: _17  and  _19
REMARK    8  A    between atoms: _19  and  _20
REMARK    9  A    between atoms: _19  and  _22
REMARK   10  A    between atoms: _22  and  _23
REMARK   11  A    between atoms: _26  and  _28
REMARK   12  A    between atoms: _28  and  _29
REMARK   13  A    between atoms: _28  and  _31
REMARK   14  A    between atoms: _31  and  _32
REMARK   15  A    between atoms: _32  and  _33
REMARK   16  A    between atoms: _36  and  _38
REMARK   17  A    between atoms: _38  and  _39
REMARK   18  A    between atoms: _42  and  _44
REMARK   19  A    between atoms: _44  and  _45
REMARK   20  A    between atoms: _47  and  _49
REMARK   21  A    between atoms: _49  and  _50
REMARK   22  A    between atoms: _49  and  _52
REMARK   23  A    between atoms: _55  and  _57
REMARK   24  A    between atoms: _57  and  _58
REMARK   25  A    between atoms: _57  and  _60
REMARK   26  A    between atoms: _60  and  _61
REMARK   27  A    between atoms: _64  and  _66
REMARK   28  A    between atoms: _66  and  _67
REMARK   29  A    between atoms: _66  and  _69
REMARK   30  A    between atoms: _69  and  _70
REMARK   31  A    between atoms: _77  and  _79
REMARK   32  A    between atoms: _79  and  _80
REMARK   33  A    between atoms: _83  and  _85
REMARK   34  A    between atoms: _85  and  _86
REMARK   35  A    between atoms: _85  and  _88
REMARK   36  A    between atoms: _88  and  _89
REMARK   37  A    between atoms: _92  and  _94
REMARK   38  A    between atoms: _94  and  _95
REMARK   39  A    between atoms: _98  and  _100
REMARK   40  A    between atoms: _100  and  _101
REMARK   41  A    between atoms: _103  and  _105
REMARK   42  A    between atoms: _105  and  _106
REMARK   43  A    between atoms: _105  and  _108
REMARK   44  A    between atoms: _108  and  _109
REMARK   45  A    between atoms: _113  and  _114
REMARK   46  A    between atoms: _119  and  _121
REMARK   47  A    between atoms: _121  and  _122
REMARK   48  A    between atoms: _125  and  _127
REMARK   49  A    between atoms: _127  and  _128
REMARK   50  A    between atoms: _127  and  _130
REMARK   51  A    between atoms: _130  and  _131
REMARK   52  A    between atoms: _131  and  _132
REMARK   53  A    between atoms: _135  and  _137
REMARK   54  A    between atoms: _137  and  _138
REMARK   55  A    between atoms: _137  and  _140
REMARK   56  A    between atoms: _140  and  _141
REMARK   57  A    between atoms: _143  and  _145
REMARK   58  A    between atoms: _145  and  _146
REMARK   59  A    between atoms: _145  and  _148
REMARK   60  A    between atoms: _148  and  _149
REMARK   61  A    between atoms: _154  and  _156
REMARK   62  A    between atoms: _156  and  _157
REMARK   63  A    between atoms: _156  and  _159
REMARK   64  A    between atoms: _159  and  _160
REMARK   65  A    between atoms: _165  and  _167
REMARK   66  A    between atoms: _167  and  _168
REMARK   67  A    between atoms: _167  and  _170
REMARK   68  A    between atoms: _170  and  _171
REMARK   69  A    between atoms: _171  and  _172
REMARK   70  A    between atoms: _175  and  _177
REMARK   71  A    between atoms: _177  and  _178
REMARK   72  A    between atoms: _177  and  _180
REMARK   73  A    between atoms: _180  and  _181
REMARK   74  A    between atoms: _187  and  _189
REMARK   75  A    between atoms: _189  and  _190
REMARK   76  A    between atoms: _189  and  _192
REMARK   77  A    between atoms: _192  and  _193
REMARK   78  A    between atoms: _193  and  _194
REMARK   79  A    between atoms: _194  and  _195
REMARK   80  A    between atoms: _195  and  _196
REMARK   81  A    between atoms: _200  and  _202
REMARK   82  A    between atoms: _202  and  _203
REMARK   83  A    between atoms: _202  and  _205
REMARK   84  A    between atoms: _205  and  _206
REMARK   85  A    between atoms: _206  and  _207
REMARK   86  A    between atoms: _207  and  _208
REMARK   87  A    between atoms: _217  and  _219
REMARK   88  A    between atoms: _219  and  _220
REMARK   89  A    between atoms: _219  and  _222
REMARK   90  A    between atoms: _222  and  _223
REMARK   91  A    between atoms: _223  and  _224
REMARK   92  A    between atoms: _227  and  _229
REMARK   93  A    between atoms: _229  and  _230
REMARK   94  A    between atoms: _229  and  _232
REMARK   95  A    between atoms: _232  and  _233
REMARK   96  A    between atoms: _239  and  _241
REMARK   97  A    between atoms: _241  and  _242
REMARK   98  A    between atoms: _241  and  _244
REMARK   99  A    between atoms: _244  and  _245
REMARK  100  A    between atoms: _249  and  _250
REMARK  101  A    between atoms: _255  and  _257
REMARK  102  A    between atoms: _257  and  _258
REMARK  103  A    between atoms: _257  and  _260
REMARK  104  A    between atoms: _260  and  _261
REMARK  105  A    between atoms: _266  and  _267
REMARK  106  A    between atoms: _269  and  _271
REMARK  107  A    between atoms: _271  and  _272
REMARK  108  A    between atoms: _275  and  _277
REMARK  109  A    between atoms: _277  and  _278
REMARK  110  A    between atoms: _277  and  _280
REMARK  111  A    between atoms: _280  and  _281
REMARK  112  A    between atoms: _286  and  _290
REMARK  113  A    between atoms: _290  and  _291
REMARK  114  A    between atoms: _290  and  _293
REMARK  115  A    between atoms: _293  and  _294
REMARK  116  A    between atoms: _294  and  _295
REMARK                            x       y       z     vdW  Elec       q    Type
REMARK                         _______ _______ _______ _____ _____    ______ ____
ROOT
ATOM      1  O   HOH     1      56.640  36.328  21.349  0.00  0.00    +0.000 OA
ENDROOT
TORSDOF 0
REMARK  Name = ../refined-set-2016/1ogd/1ogd_pocket.pdb
REMARK  116 active torsions:
REMARK  status: ('A' for Active; 'I' for Inactive)
REMARK    1  A    between atoms: _1  and  _3
REMARK    2  A    between atoms: _3  and  _4
REMARK    3  A    between atoms: _6  and  _8
REMARK    4  A    between atoms: _8  and  _9
REMARK    5  A    between atoms: _8  and  _11
REMARK    6  A    between atoms: _11  and  _12
REMARK    7  A    between atoms: _17  and  _19
REMARK    8  A    between atoms: _19  and  _20
REMARK    9  A    between atoms: _19  and  _22
REMARK   10  A    between atoms: _22  and  _23
REMARK   11  A    between atoms: _26  and  _28
REMARK   12  A    between atoms: _28  and  _29
REMARK   13  A    between atoms: _28  and  _31
REMARK   14  A    between atoms: _31  and  _32
REMARK   15  A    between atoms: _32  and  _33
REMARK   16  A    between atoms: _36  and  _38
REMARK   17  A    between atoms: _38  and  _39
REMARK   18  A    between atoms: _42  and  _44
REMARK   19  A    between atoms: _44  and  _45
REMARK   20  A    between atoms: _47  and  _49
REMARK   21  A    between atoms: _49  and  _50
REMARK   22  A    between atoms: _49  and  _52
REMARK   23  A    between atoms: _55  and  _57
REMARK   24  A    between atoms: _57  and  _58
REMARK   25  A    between atoms: _57  and  _60
REMARK   26  A    between atoms: _60  and  _61
REMARK   27  A    between atoms: _64  and  _66
REMARK   28  A    between atoms: _66  and  _67
REMARK   29  A    between atoms: _66  and  _69
REMARK   30  A    between atoms: _69  and  _70
REMARK   31  A    between atoms: _77  and  _79
REMARK   32  A    between atoms: _79  and  _80
REMARK   33  A    between atoms: _83  and  _85
REMARK   34  A    between atoms: _85  and  _86
REMARK   35  A    between atoms: _85  and  _88
REMARK   36  A    between atoms: _88  and  _89
REMARK   37  A    between atoms: _92  and  _94
REMARK   38  A    between atoms: _94  and  _95
REMARK   39  A    between atoms: _98  and  _100
REMARK   40  A    between atoms: _100  and  _101
REMARK   41  A    between atoms: _103  and  _105
REMARK   42  A    between atoms: _105  and  _106
REMARK   43  A    between atoms: _105  and  _108
REMARK   44  A    between atoms: _108  and  _109
REMARK   45  A    between atoms: _113  and  _114
REMARK   46  A    between atoms: _119  and  _121
REMARK   47  A    between atoms: _121  and  _122
REMARK   48  A    between atoms: _125  and  _127
REMARK   49  A    between atoms: _127  and  _128
REMARK   50  A    between atoms: _127  and  _130
REMARK   51  A    between atoms: _130  and  _131
REMARK   52  A    between atoms: _131  and  _132
REMARK   53  A    between atoms: _135  and  _137
REMARK   54  A    between atoms: _137  and  _138
REMARK   55  A    between atoms: _137  and  _140
REMARK   56  A    between atoms: _140  and  _141
REMARK   57  A    between atoms: _143  and  _145
REMARK   58  A    between atoms: _145  and  _146
REMARK   59  A    between atoms: _145  and  _148
REMARK   60  A    between atoms: _148  and  _149
REMARK   61  A    between atoms: _154  and  _156
REMARK   62  A    between atoms: _156  and  _157
REMARK   63  A    between atoms: _156  and  _159
REMARK   64  A    between atoms: _159  and  _160
REMARK   65  A    between atoms: _165  and  _167
REMARK   66  A    between atoms: _167  and  _168
REMARK   67  A    between atoms: _167  and  _170
REMARK   68  A    between atoms: _170  and  _171
REMARK   69  A    between atoms: _171  and  _172
REMARK   70  A    between atoms: _175  and  _177
REMARK   71  A    between atoms: _177  and  _178
REMARK   72  A    between atoms: _177  and  _180
REMARK   73  A    between atoms: _180  and  _181
REMARK   74  A    between atoms: _187  and  _189
REMARK   75  A    between atoms: _189  and  _190
REMARK   76  A    between atoms: _189  and  _192
REMARK   77  A    between atoms: _192  and  _193
REMARK   78  A    between atoms: _193  and  _194
REMARK   79  A    between atoms: _194  and  _195
REMARK   80  A    between atoms: _195  and  _196
REMARK   81  A    between atoms: _200  and  _202
REMARK   82  A    between atoms: _202  and  _203
REMARK   83  A    between atoms: _202  and  _205
REMARK   84  A    between atoms: _205  and  _206
REMARK   85  A    between atoms: _206  and  _207
REMARK   86  A    between atoms: _207  and  _208
REMARK   87  A    between atoms: _217  and  _219
REMARK   88  A    between atoms: _219  and  _220
REMARK   89  A    between atoms: _219  and  _222
REMARK   90  A    between atoms: _222  and  _223
REMARK   91  A    between atoms: _223  and  _224
REMARK   92  A    between atoms: _227  and  _229
REMARK   93  A    between atoms: _229  and  _230
REMARK   94  A    between atoms: _229  and  _232
REMARK   95  A    between atoms: _232  and  _233
REMARK   96  A    between atoms: _239  and  _241
REMARK   97  A    between atoms: _241  and  _242
REMARK   98  A    between atoms: _241  and  _244
REMARK   99  A    between atoms: _244  and  _245
REMARK  100  A    between atoms: _249  and  _250
REMARK  101  A    between atoms: _255  and  _257
REMARK  102  A    between atoms: _257  and  _258
REMARK  103  A    between atoms: _257  and  _260
REMARK  104  A    between atoms: _260  and  _261
REMARK  105  A    between atoms: _266  and  _267
REMARK  106  A    between atoms: _269  and  _271
REMARK  107  A    between atoms: _271  and  _272
REMARK  108  A    between atoms: _275  and  _277
REMARK  109  A    between atoms: _277  and  _278
REMARK  110  A    between atoms: _277  and  _280
REMARK  111  A    between atoms: _280  and  _281
REMARK  112  A    between atoms: _286  and  _290
REMARK  113  A    between atoms: _290  and  _291
REMARK  114  A    between atoms: _290  and  _293
REMARK  115  A    between atoms: _293  and  _294
REMARK  116  A    between atoms: _294  and  _295
REMARK                            x       y       z     vdW  Elec       q    Type
REMARK                         _______ _______ _______ _____ _____    ______ ____
ROOT
ATOM      1  O   HOH     1      48.881  34.423  19.043  0.00  0.00    +0.000 OA
ENDROOT
TORSDOF 0
REMARK  Name = ../refined-set-2016/1ogd/1ogd_pocket.pdb
REMARK  116 active torsions:
REMARK  status: ('A' for Active; 'I' for Inactive)
REMARK    1  A    between atoms: _1  and  _3
REMARK    2  A    between atoms: _3  and  _4
REMARK    3  A    between atoms: _6  and  _8
REMARK    4  A    between atoms: _8  and  _9
REMARK    5  A    between atoms: _8  and  _11
REMARK    6  A    between atoms: _11  and  _12
REMARK    7  A    between atoms: _17  and  _19
REMARK    8  A    between atoms: _19  and  _20
REMARK    9  A    between atoms: _19  and  _22
REMARK   10  A    between atoms: _22  and  _23
REMARK   11  A    between atoms: _26  and  _28
REMARK   12  A    between atoms: _28  and  _29
REMARK   13  A    between atoms: _28  and  _31
REMARK   14  A    between atoms: _31  and  _32
REMARK   15  A    between atoms: _32  and  _33
REMARK   16  A    between atoms: _36  and  _38
REMARK   17  A    between atoms: _38  and  _39
REMARK   18  A    between atoms: _42  and  _44
REMARK   19  A    between atoms: _44  and  _45
REMARK   20  A    between atoms: _47  and  _49
REMARK   21  A    between atoms: _49  and  _50
REMARK   22  A    between atoms: _49  and  _52
REMARK   23  A    between atoms: _55  and  _57
REMARK   24  A    between atoms: _57  and  _58
REMARK   25  A    between atoms: _57  and  _60
REMARK   26  A    between atoms: _60  and  _61
REMARK   27  A    between atoms: _64  and  _66
REMARK   28  A    between atoms: _66  and  _67
REMARK   29  A    between atoms: _66  and  _69
REMARK   30  A    between atoms: _69  and  _70
REMARK   31  A    between atoms: _77  and  _79
REMARK   32  A    between atoms: _79  and  _80
REMARK   33  A    between atoms: _83  and  _85
REMARK   34  A    between atoms: _85  and  _86
REMARK   35  A    between atoms: _85  and  _88
REMARK   36  A    between atoms: _88  and  _89
REMARK   37  A    between atoms: _92  and  _94
REMARK   38  A    between atoms: _94  and  _95
REMARK   39  A    between atoms: _98  and  _100
REMARK   40  A    between atoms: _100  and  _101
REMARK   41  A    between atoms: _103  and  _105
REMARK   42  A    between atoms: _105  and  _106
REMARK   43  A    between atoms: _105  and  _108
REMARK   44  A    between atoms: _108  and  _109
REMARK   45  A    between atoms: _113  and  _114
REMARK   46  A    between atoms: _119  and  _121
REMARK   47  A    between atoms: _121  and  _122
REMARK   48  A    between atoms: _125  and  _127
REMARK   49  A    between atoms: _127  and  _128
REMARK   50  A    between atoms: _127  and  _130
REMARK   51  A    between atoms: _130  and  _131
REMARK   52  A    between atoms: _131  and  _132
REMARK   53  A    between atoms: _135  and  _137
REMARK   54  A    between atoms: _137  and  _138
REMARK   55  A    between atoms: _137  and  _140
REMARK   56  A    between atoms: _140  and  _141
REMARK   57  A    between atoms: _143  and  _145
REMARK   58  A    between atoms: _145  and  _146
REMARK   59  A    between atoms: _145  and  _148
REMARK   60  A    between atoms: _148  and  _149
REMARK   61  A    between atoms: _154  and  _156
REMARK   62  A    between atoms: _156  and  _157
REMARK   63  A    between atoms: _156  and  _159
REMARK   64  A    between atoms: _159  and  _160
REMARK   65  A    between atoms: _165  and  _167
REMARK   66  A    between atoms: _167  and  _168
REMARK   67  A    between atoms: _167  and  _170
REMARK   68  A    between atoms: _170  and  _171
REMARK   69  A    between atoms: _171  and  _172
REMARK   70  A    between atoms: _175  and  _177
REMARK   71  A    between atoms: _177  and  _178
REMARK   72  A    between atoms: _177  and  _180
REMARK   73  A    between atoms: _180  and  _181
REMARK   74  A    between atoms: _187  and  _189
REMARK   75  A    between atoms: _189  and  _190
REMARK   76  A    between atoms: _189  and  _192
REMARK   77  A    between atoms: _192  and  _193
REMARK   78  A    between atoms: _193  and  _194
REMARK   79  A    between atoms: _194  and  _195
REMARK   80  A    between atoms: _195  and  _196
REMARK   81  A    between atoms: _200  and  _202
REMARK   82  A    between atoms: _202  and  _203
REMARK   83  A    between atoms: _202  and  _205
REMARK   84  A    between atoms: _205  and  _206
REMARK   85  A    between atoms: _206  and  _207
REMARK   86  A    between atoms: _207  and  _208
REMARK   87  A    between atoms: _217  and  _219
REMARK   88  A    between atoms: _219  and  _220
REMARK   89  A    between atoms: _219  and  _222
REMARK   90  A    between atoms: _222  and  _223
REMARK   91  A    between atoms: _223  and  _224
REMARK   92  A    between atoms: _227  and  _229
REMARK   93  A    between atoms: _229  and  _230
REMARK   94  A    between atoms: _229  and  _232
REMARK   95  A    between atoms: _232  and  _233
REMARK   96  A    between atoms: _239  and  _241
REMARK   97  A    between atoms: _241  and  _242
REMARK   98  A    between atoms: _241  and  _244
REMARK   99  A    between atoms: _244  and  _245
REMARK  100  A    between atoms: _249  and  _250
REMARK  101  A    between atoms: _255  and  _257
REMARK  102  A    between atoms: _257  and  _258
REMARK  103  A    between atoms: _257  and  _260
REMARK  104  A    between atoms: _260  and  _261
REMARK  105  A    between atoms: _266  and  _267
REMARK  106  A    between atoms: _269  and  _271
REMARK  107  A    between atoms: _271  and  _272
REMARK  108  A    between atoms: _275  and  _277
REMARK  109  A    between atoms: _277  and  _278
REMARK  110  A    between atoms: _277  and  _280
REMARK  111  A    between atoms: _280  and  _281
REMARK  112  A    between atoms: _286  and  _290
REMARK  113  A    between atoms: _290  and  _291
REMARK  114  A    between atoms: _290  and  _293
REMARK  115  A    between atoms: _293  and  _294
REMARK  116  A    between atoms: _294  and  _295
REMARK                            x       y       z     vdW  Elec       q    Type
REMARK                         _______ _______ _______ _____ _____    ______ ____
ROOT
ATOM      1  O   HOH     1      47.893  41.379  23.720  0.00  0.00    +0.000 OA
ENDROOT
TORSDOF 0
REMARK  Name = ../refined-set-2016/1ogd/1ogd_pocket.pdb
REMARK  116 active torsions:
REMARK  status: ('A' for Active; 'I' for Inactive)
REMARK    1  A    between atoms: _1  and  _3
REMARK    2  A    between atoms: _3  and  _4
REMARK    3  A    between atoms: _6  and  _8
REMARK    4  A    between atoms: _8  and  _9
REMARK    5  A    between atoms: _8  and  _11
REMARK    6  A    between atoms: _11  and  _12
REMARK    7  A    between atoms: _17  and  _19
REMARK    8  A    between atoms: _19  and  _20
REMARK    9  A    between atoms: _19  and  _22
REMARK   10  A    between atoms: _22  and  _23
REMARK   11  A    between atoms: _26  and  _28
REMARK   12  A    between atoms: _28  and  _29
REMARK   13  A    between atoms: _28  and  _31
REMARK   14  A    between atoms: _31  and  _32
REMARK   15  A    between atoms: _32  and  _33
REMARK   16  A    between atoms: _36  and  _38
REMARK   17  A    between atoms: _38  and  _39
REMARK   18  A    between atoms: _42  and  _44
REMARK   19  A    between atoms: _44  and  _45
REMARK   20  A    between atoms: _47  and  _49
REMARK   21  A    between atoms: _49  and  _50
REMARK   22  A    between atoms: _49  and  _52
REMARK   23  A    between atoms: _55  and  _57
REMARK   24  A    between atoms: _57  and  _58
REMARK   25  A    between atoms: _57  and  _60
REMARK   26  A    between atoms: _60  and  _61
REMARK   27  A    between atoms: _64  and  _66
REMARK   28  A    between atoms: _66  and  _67
REMARK   29  A    between atoms: _66  and  _69
REMARK   30  A    between atoms: _69  and  _70
REMARK   31  A    between atoms: _77  and  _79
REMARK   32  A    between atoms: _79  and  _80
REMARK   33  A    between atoms: _83  and  _85
REMARK   34  A    between atoms: _85  and  _86
REMARK   35  A    between atoms: _85  and  _88
REMARK   36  A    between atoms: _88  and  _89
REMARK   37  A    between atoms: _92  and  _94
REMARK   38  A    between atoms: _94  and  _95
REMARK   39  A    between atoms: _98  and  _100
REMARK   40  A    between atoms: _100  and  _101
REMARK   41  A    between atoms: _103  and  _105
REMARK   42  A    between atoms: _105  and  _106
REMARK   43  A    between atoms: _105  and  _108
REMARK   44  A    between atoms: _108  and  _109
REMARK   45  A    between atoms: _113  and  _114
REMARK   46  A    between atoms: _119  and  _121
REMARK   47  A    between atoms: _121  and  _122
REMARK   48  A    between atoms: _125  and  _127
REMARK   49  A    between atoms: _127  and  _128
REMARK   50  A    between atoms: _127  and  _130
REMARK   51  A    between atoms: _130  and  _131
REMARK   52  A    between atoms: _131  and  _132
REMARK   53  A    between atoms: _135  and  _137
REMARK   54  A    between atoms: _137  and  _138
REMARK   55  A    between atoms: _137  and  _140
REMARK   56  A    between atoms: _140  and  _141
REMARK   57  A    between atoms: _143  and  _145
REMARK   58  A    between atoms: _145  and  _146
REMARK   59  A    between atoms: _145  and  _148
REMARK   60  A    between atoms: _148  and  _149
REMARK   61  A    between atoms: _154  and  _156
REMARK   62  A    between atoms: _156  and  _157
REMARK   63  A    between atoms: _156  and  _159
REMARK   64  A    between atoms: _159  and  _160
REMARK   65  A    between atoms: _165  and  _167
REMARK   66  A    between atoms: _167  and  _168
REMARK   67  A    between atoms: _167  and  _170
REMARK   68  A    between atoms: _170  and  _171
REMARK   69  A    between atoms: _171  and  _172
REMARK   70  A    between atoms: _175  and  _177
REMARK   71  A    between atoms: _177  and  _178
REMARK   72  A    between atoms: _177  and  _180
REMARK   73  A    between atoms: _180  and  _181
REMARK   74  A    between atoms: _187  and  _189
REMARK   75  A    between atoms: _189  and  _190
REMARK   76  A    between atoms: _189  and  _192
REMARK   77  A    between atoms: _192  and  _193
REMARK   78  A    between atoms: _193  and  _194
REMARK   79  A    between atoms: _194  and  _195
REMARK   80  A    between atoms: _195  and  _196
REMARK   81  A    between atoms: _200  and  _202
REMARK   82  A    between atoms: _202  and  _203
REMARK   83  A    between atoms: _202  and  _205
REMARK   84  A    between atoms: _205  and  _206
REMARK   85  A    between atoms: _206  and  _207
REMARK   86  A    between atoms: _207  and  _208
REMARK   87  A    between atoms: _217  and  _219
REMARK   88  A    between atoms: _219  and  _220
REMARK   89  A    between atoms: _219  and  _222
REMARK   90  A    between atoms: _222  and  _223
REMARK   91  A    between atoms: _223  and  _224
REMARK   92  A    between atoms: _227  and  _229
REMARK   93  A    between atoms: _229  and  _230
REMARK   94  A    between atoms: _229  and  _232
REMARK   95  A    between atoms: _232  and  _233
REMARK   96  A    between atoms: _239  and  _241
REMARK   97  A    between atoms: _241  and  _242
REMARK   98  A    between atoms: _241  and  _244
REMARK   99  A    between atoms: _244  and  _245
REMARK  100  A    between atoms: _249  and  _250
REMARK  101  A    between atoms: _255  and  _257
REMARK  102  A    between atoms: _257  and  _258
REMARK  103  A    between atoms: _257  and  _260
REMARK  104  A    between atoms: _260  and  _261
REMARK  105  A    between atoms: _266  and  _267
REMARK  106  A    between atoms: _269  and  _271
REMARK  107  A    between atoms: _271  and  _272
REMARK  108  A    between atoms: _275  and  _277
REMARK  109  A    between atoms: _277  and  _278
REMARK  110  A    between atoms: _277  and  _280
REMARK  111  A    between atoms: _280  and  _281
REMARK  112  A    between atoms: _286  and  _290
REMARK  113  A    between atoms: _290  and  _291
REMARK  114  A    between atoms: _290  and  _293
REMARK  115  A    between atoms: _293  and  _294
REMARK  116  A    between atoms: _294  and  _295
REMARK                            x       y       z     vdW  Elec       q    Type
REMARK                         _______ _______ _______ _____ _____    ______ ____
ROOT
ATOM      1  O   HOH     1      47.443  44.191  22.729  0.00  0.00    +0.000 OA
ENDROOT
TORSDOF 0
REMARK  Name = ../refined-set-2016/1ogd/1ogd_pocket.pdb
REMARK  116 active torsions:
REMARK  status: ('A' for Active; 'I' for Inactive)
REMARK    1  A    between atoms: _1  and  _3
REMARK    2  A    between atoms: _3  and  _4
REMARK    3  A    between atoms: _6  and  _8
REMARK    4  A    between atoms: _8  and  _9
REMARK    5  A    between atoms: _8  and  _11
REMARK    6  A    between atoms: _11  and  _12
REMARK    7  A    between atoms: _17  and  _19
REMARK    8  A    between atoms: _19  and  _20
REMARK    9  A    between atoms: _19  and  _22
REMARK   10  A    between atoms: _22  and  _23
REMARK   11  A    between atoms: _26  and  _28
REMARK   12  A    between atoms: _28  and  _29
REMARK   13  A    between atoms: _28  and  _31
REMARK   14  A    between atoms: _31  and  _32
REMARK   15  A    between atoms: _32  and  _33
REMARK   16  A    between atoms: _36  and  _38
REMARK   17  A    between atoms: _38  and  _39
REMARK   18  A    between atoms: _42  and  _44
REMARK   19  A    between atoms: _44  and  _45
REMARK   20  A    between atoms: _47  and  _49
REMARK   21  A    between atoms: _49  and  _50
REMARK   22  A    between atoms: _49  and  _52
REMARK   23  A    between atoms: _55  and  _57
REMARK   24  A    between atoms: _57  and  _58
REMARK   25  A    between atoms: _57  and  _60
REMARK   26  A    between atoms: _60  and  _61
REMARK   27  A    between atoms: _64  and  _66
REMARK   28  A    between atoms: _66  and  _67
REMARK   29  A    between atoms: _66  and  _69
REMARK   30  A    between atoms: _69  and  _70
REMARK   31  A    between atoms: _77  and  _79
REMARK   32  A    between atoms: _79  and  _80
REMARK   33  A    between atoms: _83  and  _85
REMARK   34  A    between atoms: _85  and  _86
REMARK   35  A    between atoms: _85  and  _88
REMARK   36  A    between atoms: _88  and  _89
REMARK   37  A    between atoms: _92  and  _94
REMARK   38  A    between atoms: _94  and  _95
REMARK   39  A    between atoms: _98  and  _100
REMARK   40  A    between atoms: _100  and  _101
REMARK   41  A    between atoms: _103  and  _105
REMARK   42  A    between atoms: _105  and  _106
REMARK   43  A    between atoms: _105  and  _108
REMARK   44  A    between atoms: _108  and  _109
REMARK   45  A    between atoms: _113  and  _114
REMARK   46  A    between atoms: _119  and  _121
REMARK   47  A    between atoms: _121  and  _122
REMARK   48  A    between atoms: _125  and  _127
REMARK   49  A    between atoms: _127  and  _128
REMARK   50  A    between atoms: _127  and  _130
REMARK   51  A    between atoms: _130  and  _131
REMARK   52  A    between atoms: _131  and  _132
REMARK   53  A    between atoms: _135  and  _137
REMARK   54  A    between atoms: _137  and  _138
REMARK   55  A    between atoms: _137  and  _140
REMARK   56  A    between atoms: _140  and  _141
REMARK   57  A    between atoms: _143  and  _145
REMARK   58  A    between atoms: _145  and  _146
REMARK   59  A    between atoms: _145  and  _148
REMARK   60  A    between atoms: _148  and  _149
REMARK   61  A    between atoms: _154  and  _156
REMARK   62  A    between atoms: _156  and  _157
REMARK   63  A    between atoms: _156  and  _159
REMARK   64  A    between atoms: _159  and  _160
REMARK   65  A    between atoms: _165  and  _167
REMARK   66  A    between atoms: _167  and  _168
REMARK   67  A    between atoms: _167  and  _170
REMARK   68  A    between atoms: _170  and  _171
REMARK   69  A    between atoms: _171  and  _172
REMARK   70  A    between atoms: _175  and  _177
REMARK   71  A    between atoms: _177  and  _178
REMARK   72  A    between atoms: _177  and  _180
REMARK   73  A    between atoms: _180  and  _181
REMARK   74  A    between atoms: _187  and  _189
REMARK   75  A    between atoms: _189  and  _190
REMARK   76  A    between atoms: _189  and  _192
REMARK   77  A    between atoms: _192  and  _193
REMARK   78  A    between atoms: _193  and  _194
REMARK   79  A    between atoms: _194  and  _195
REMARK   80  A    between atoms: _195  and  _196
REMARK   81  A    between atoms: _200  and  _202
REMARK   82  A    between atoms: _202  and  _203
REMARK   83  A    between atoms: _202  and  _205
REMARK   84  A    between atoms: _205  and  _206
REMARK   85  A    between atoms: _206  and  _207
REMARK   86  A    between atoms: _207  and  _208
REMARK   87  A    between atoms: _217  and  _219
REMARK   88  A    between atoms: _219  and  _220
REMARK   89  A    between atoms: _219  and  _222
REMARK   90  A    between atoms: _222  and  _223
REMARK   91  A    between atoms: _223  and  _224
REMARK   92  A    between atoms: _227  and  _229
REMARK   93  A    between atoms: _229  and  _230
REMARK   94  A    between atoms: _229  and  _232
REMARK   95  A    between atoms: _232  and  _233
REMARK   96  A    between atoms: _239  and  _241
REMARK   97  A    between atoms: _241  and  _242
REMARK   98  A    between atoms: _241  and  _244
REMARK   99  A    between atoms: _244  and  _245
REMARK  100  A    between atoms: _249  and  _250
REMARK  101  A    between atoms: _255  and  _257
REMARK  102  A    between atoms: _257  and  _258
REMARK  103  A    between atoms: _257  and  _260
REMARK  104  A    between atoms: _260  and  _261
REMARK  105  A    between atoms: _266  and  _267
REMARK  106  A    between atoms: _269  and  _271
REMARK  107  A    between atoms: _271  and  _272
REMARK  108  A    between atoms: _275  and  _277
REMARK  109  A    between atoms: _277  and  _278
REMARK  110  A    between atoms: _277  and  _280
REMARK  111  A    between atoms: _280  and  _281
REMARK  112  A    between atoms: _286  and  _290
REMARK  113  A    between atoms: _290  and  _291
REMARK  114  A    between atoms: _290  and  _293
REMARK  115  A    between atoms: _293  and  _294
REMARK  116  A    between atoms: _294  and  _295
REMARK                            x       y       z     vdW  Elec       q    Type
REMARK                         _______ _______ _______ _____ _____    ______ ____
ROOT
ATOM      1  O   HOH     1      48.443  33.734  25.939  0.00  0.00    +0.000 OA
ENDROOT
TORSDOF 0
