REMARK  Name = ../refined-set-2016/2q7y/2q7y_pocket.pdb
REMARK  269 active torsions:
REMARK  status: ('A' for Active; 'I' for Inactive)
REMARK    1  A    between atoms: _1  and  _3
REMARK    2  A    between atoms: _3  and  _4
REMARK    3  A    between atoms: _3  and  _6
REMARK    4  A    between atoms: _8  and  _10
REMARK    5  A    between atoms: _10  and  _11
REMARK    6  A    between atoms: _10  and  _13
REMARK    7  A    between atoms: _13  and  _14
REMARK    8  A    between atoms: _14  and  _15
REMARK    9  A    between atoms: _20  and  _22
REMARK   10  A    between atoms: _22  and  _23
REMARK   11  A    between atoms: _22  and  _25
REMARK   12  A    between atoms: _25  and  _26
REMARK   13  A    between atoms: _32  and  _34
REMARK   14  A    between atoms: _34  and  _35
REMARK   15  A    between atoms: _34  and  _37
REMARK   16  A    between atoms: _37  and  _38
REMARK   17  A    between atoms: _40  and  _42
REMARK   18  A    between atoms: _42  and  _43
REMARK   19  A    between atoms: _42  and  _45
REMARK   20  A    between atoms: _45  and  _46
REMARK   21  A    between atoms: _51  and  _53
REMARK   22  A    between atoms: _53  and  _54
REMARK   23  A    between atoms: _53  and  _56
REMARK   24  A    between atoms: _56  and  _57
REMARK   25  A    between atoms: _57  and  _58
REMARK   26  A    between atoms: _60  and  _62
REMARK   27  A    between atoms: _62  and  _63
REMARK   28  A    between atoms: _62  and  _65
REMARK   29  A    between atoms: _65  and  _66
REMARK   30  A    between atoms: _72  and  _74
REMARK   31  A    between atoms: _74  and  _75
REMARK   32  A    between atoms: _74  and  _77
REMARK   33  A    between atoms: _77  and  _78
REMARK   34  A    between atoms: _78  and  _79
REMARK   35  A    between atoms: _84  and  _86
REMARK   36  A    between atoms: _86  and  _87
REMARK   37  A    between atoms: _86  and  _89
REMARK   38  A    between atoms: _92  and  _94
REMARK   39  A    between atoms: _94  and  _95
REMARK   40  A    between atoms: _94  and  _97
REMARK   41  A    between atoms: _97  and  _98
REMARK   42  A    between atoms: _103  and  _104
REMARK   43  A    between atoms: _106  and  _108
REMARK   44  A    between atoms: _108  and  _109
REMARK   45  A    between atoms: _108  and  _111
REMARK   46  A    between atoms: _111  and  _112
REMARK   47  A    between atoms: _112  and  _113
REMARK   48  A    between atoms: _113  and  _114
REMARK   49  A    between atoms: _123  and  _125
REMARK   50  A    between atoms: _125  and  _126
REMARK   51  A    between atoms: _125  and  _128
REMARK   52  A    between atoms: _131  and  _133
REMARK   53  A    between atoms: _133  and  _134
REMARK   54  A    between atoms: _133  and  _136
REMARK   55  A    between atoms: _136  and  _137
REMARK   56  A    between atoms: _139  and  _141
REMARK   57  A    between atoms: _141  and  _142
REMARK   58  A    between atoms: _141  and  _144
REMARK   59  A    between atoms: _144  and  _145
REMARK   60  A    between atoms: _151  and  _153
REMARK   61  A    between atoms: _153  and  _154
REMARK   62  A    between atoms: _153  and  _156
REMARK   63  A    between atoms: _156  and  _157
REMARK   64  A    between atoms: _160  and  _162
REMARK   65  A    between atoms: _162  and  _163
REMARK   66  A    between atoms: _162  and  _165
REMARK   67  A    between atoms: _165  and  _166
REMARK   68  A    between atoms: _166  and  _167
REMARK   69  A    between atoms: _167  and  _168
REMARK   70  A    between atoms: _177  and  _179
REMARK   71  A    between atoms: _179  and  _180
REMARK   72  A    between atoms: _179  and  _182
REMARK   73  A    between atoms: _182  and  _183
REMARK   74  A    between atoms: _186  and  _188
REMARK   75  A    between atoms: _188  and  _189
REMARK   76  A    between atoms: _188  and  _191
REMARK   77  A    between atoms: _191  and  _192
REMARK   78  A    between atoms: _195  and  _197
REMARK   79  A    between atoms: _197  and  _198
REMARK   80  A    between atoms: _197  and  _200
REMARK   81  A    between atoms: _200  and  _201
REMARK   82  A    between atoms: _201  and  _202
REMARK   83  A    between atoms: _207  and  _209
REMARK   84  A    between atoms: _209  and  _210
REMARK   85  A    between atoms: _209  and  _212
REMARK   86  A    between atoms: _212  and  _213
REMARK   87  A    between atoms: _213  and  _214
REMARK   88  A    between atoms: _217  and  _219
REMARK   89  A    between atoms: _219  and  _220
REMARK   90  A    between atoms: _219  and  _222
REMARK   91  A    between atoms: _222  and  _223
REMARK   92  A    between atoms: _226  and  _228
REMARK   93  A    between atoms: _228  and  _229
REMARK   94  A    between atoms: _228  and  _231
REMARK   95  A    between atoms: _234  and  _236
REMARK   96  A    between atoms: _236  and  _237
REMARK   97  A    between atoms: _236  and  _239
REMARK   98  A    between atoms: _239  and  _240
REMARK   99  A    between atoms: _240  and  _241
REMARK  100  A    between atoms: _241  and  _242
REMARK  101  A    between atoms: _242  and  _243
REMARK  102  A    between atoms: _247  and  _249
REMARK  103  A    between atoms: _249  and  _250
REMARK  104  A    between atoms: _249  and  _252
REMARK  105  A    between atoms: _252  and  _253
REMARK  106  A    between atoms: _253  and  _254
REMARK  107  A    between atoms: _256  and  _258
REMARK  108  A    between atoms: _258  and  _259
REMARK  109  A    between atoms: _258  and  _261
REMARK  110  A    between atoms: _261  and  _262
REMARK  111  A    between atoms: _262  and  _263
REMARK  112  A    between atoms: _265  and  _267
REMARK  113  A    between atoms: _267  and  _268
REMARK  114  A    between atoms: _267  and  _270
REMARK  115  A    between atoms: _270  and  _271
REMARK  116  A    between atoms: _273  and  _275
REMARK  117  A    between atoms: _275  and  _276
REMARK  118  A    between atoms: _275  and  _278
REMARK  119  A    between atoms: _278  and  _279
REMARK  120  A    between atoms: _279  and  _280
REMARK  121  A    between atoms: _283  and  _285
REMARK  122  A    between atoms: _285  and  _286
REMARK  123  A    between atoms: _285  and  _288
REMARK  124  A    between atoms: _288  and  _289
REMARK  125  A    between atoms: _292  and  _294
REMARK  126  A    between atoms: _294  and  _295
REMARK  127  A    between atoms: _294  and  _297
REMARK  128  A    between atoms: _297  and  _298
REMARK  129  A    between atoms: _301  and  _303
REMARK  130  A    between atoms: _303  and  _304
REMARK  131  A    between atoms: _303  and  _306
REMARK  132  A    between atoms: _306  and  _307
REMARK  133  A    between atoms: _307  and  _308
REMARK  134  A    between atoms: _311  and  _313
REMARK  135  A    between atoms: _313  and  _314
REMARK  136  A    between atoms: _313  and  _316
REMARK  137  A    between atoms: _316  and  _317
REMARK  138  A    between atoms: _320  and  _322
REMARK  139  A    between atoms: _322  and  _323
REMARK  140  A    between atoms: _322  and  _325
REMARK  141  A    between atoms: _325  and  _326
REMARK  142  A    between atoms: _326  and  _327
REMARK  143  A    between atoms: _332  and  _334
REMARK  144  A    between atoms: _334  and  _335
REMARK  145  A    between atoms: _334  and  _337
REMARK  146  A    between atoms: _337  and  _338
REMARK  147  A    between atoms: _341  and  _343
REMARK  148  A    between atoms: _343  and  _344
REMARK  149  A    between atoms: _343  and  _346
REMARK  150  A    between atoms: _346  and  _347
REMARK  151  A    between atoms: _349  and  _351
REMARK  152  A    between atoms: _351  and  _352
REMARK  153  A    between atoms: _355  and  _357
REMARK  154  A    between atoms: _357  and  _358
REMARK  155  A    between atoms: _357  and  _360
REMARK  156  A    between atoms: _360  and  _361
REMARK  157  A    between atoms: _367  and  _369
REMARK  158  A    between atoms: _369  and  _370
REMARK  159  A    between atoms: _369  and  _372
REMARK  160  A    between atoms: _372  and  _373
REMARK  161  A    between atoms: _376  and  _378
REMARK  162  A    between atoms: _378  and  _379
REMARK  163  A    between atoms: _378  and  _381
REMARK  164  A    between atoms: _381  and  _382
REMARK  165  A    between atoms: _387  and  _389
REMARK  166  A    between atoms: _389  and  _390
REMARK  167  A    between atoms: _389  and  _392
REMARK  168  A    between atoms: _395  and  _397
REMARK  169  A    between atoms: _397  and  _398
REMARK  170  A    between atoms: _401  and  _403
REMARK  171  A    between atoms: _403  and  _404
REMARK  172  A    between atoms: _403  and  _406
REMARK  173  A    between atoms: _406  and  _407
REMARK  174  A    between atoms: _413  and  _415
REMARK  175  A    between atoms: _415  and  _416
REMARK  176  A    between atoms: _415  and  _418
REMARK  177  A    between atoms: _418  and  _419
REMARK  178  A    between atoms: _419  and  _420
REMARK  179  A    between atoms: _425  and  _427
REMARK  180  A    between atoms: _427  and  _428
REMARK  181  A    between atoms: _427  and  _430
REMARK  182  A    between atoms: _430  and  _431
REMARK  183  A    between atoms: _431  and  _432
REMARK  184  A    between atoms: _432  and  _433
REMARK  185  A    between atoms: _433  and  _434
REMARK  186  A    between atoms: _438  and  _440
REMARK  187  A    between atoms: _440  and  _441
REMARK  188  A    between atoms: _440  and  _443
REMARK  189  A    between atoms: _446  and  _448
REMARK  190  A    between atoms: _448  and  _449
REMARK  191  A    between atoms: _448  and  _451
REMARK  192  A    between atoms: _454  and  _456
REMARK  193  A    between atoms: _456  and  _457
REMARK  194  A    between atoms: _456  and  _459
REMARK  195  A    between atoms: _459  and  _460
REMARK  196  A    between atoms: _460  and  _461
REMARK  197  A    between atoms: _461  and  _462
REMARK  198  A    between atoms: _471  and  _473
REMARK  199  A    between atoms: _473  and  _474
REMARK  200  A    between atoms: _473  and  _476
REMARK  201  A    between atoms: _476  and  _477
REMARK  202  A    between atoms: _483  and  _485
REMARK  203  A    between atoms: _485  and  _486
REMARK  204  A    between atoms: _485  and  _488
REMARK  205  A    between atoms: _488  and  _489
REMARK  206  A    between atoms: _499  and  _501
REMARK  207  A    between atoms: _501  and  _502
REMARK  208  A    between atoms: _501  and  _504
REMARK  209  A    between atoms: _504  and  _505
REMARK  210  A    between atoms: _508  and  _510
REMARK  211  A    between atoms: _510  and  _511
REMARK  212  A    between atoms: _510  and  _513
REMARK  213  A    between atoms: _513  and  _514
REMARK  214  A    between atoms: _524  and  _526
REMARK  215  A    between atoms: _526  and  _527
REMARK  216  A    between atoms: _526  and  _529
REMARK  217  A    between atoms: _529  and  _530
REMARK  218  A    between atoms: _534  and  _535
REMARK  219  A    between atoms: _540  and  _542
REMARK  220  A    between atoms: _542  and  _543
REMARK  221  A    between atoms: _542  and  _545
REMARK  222  A    between atoms: _545  and  _546
REMARK  223  A    between atoms: _549  and  _551
REMARK  224  A    between atoms: _551  and  _552
REMARK  225  A    between atoms: _551  and  _554
REMARK  226  A    between atoms: _554  and  _555
REMARK  227  A    between atoms: _558  and  _560
REMARK  228  A    between atoms: _560  and  _561
REMARK  229  A    between atoms: _564  and  _566
REMARK  230  A    between atoms: _566  and  _567
REMARK  231  A    between atoms: _566  and  _569
REMARK  232  A    between atoms: _569  and  _570
REMARK  233  A    between atoms: _573  and  _575
REMARK  234  A    between atoms: _575  and  _576
REMARK  235  A    between atoms: _575  and  _578
REMARK  236  A    between atoms: _578  and  _579
REMARK  237  A    between atoms: _579  and  _580
REMARK  238  A    between atoms: _585  and  _587
REMARK  239  A    between atoms: _587  and  _588
REMARK  240  A    between atoms: _590  and  _592
REMARK  241  A    between atoms: _592  and  _593
REMARK  242  A    between atoms: _592  and  _595
REMARK  243  A    between atoms: _595  and  _596
REMARK  244  A    between atoms: _599  and  _601
REMARK  245  A    between atoms: _601  and  _602
REMARK  246  A    between atoms: _601  and  _604
REMARK  247  A    between atoms: _604  and  _605
REMARK  248  A    between atoms: _607  and  _609
REMARK  249  A    between atoms: _609  and  _610
REMARK  250  A    between atoms: _613  and  _615
REMARK  251  A    between atoms: _615  and  _616
REMARK  252  A    between atoms: _615  and  _618
REMARK  253  A    between atoms: _618  and  _619
REMARK  254  A    between atoms: _622  and  _624
REMARK  255  A    between atoms: _624  and  _625
REMARK  256  A    between atoms: _624  and  _627
REMARK  257  A    between atoms: _630  and  _632
REMARK  258  A    between atoms: _632  and  _633
REMARK  259  A    between atoms: _632  and  _635
REMARK  260  A    between atoms: _635  and  _636
REMARK  261  A    between atoms: _636  and  _637
REMARK  262  A    between atoms: _642  and  _644
REMARK  263  A    between atoms: _644  and  _645
REMARK  264  A    between atoms: _644  and  _647
REMARK  265  A    between atoms: _647  and  _648
REMARK  266  A    between atoms: _651  and  _653
REMARK  267  A    between atoms: _653  and  _654
REMARK  268  A    between atoms: _653  and  _656
REMARK  269  A    between atoms: _656  and  _657
REMARK                            x       y       z     vdW  Elec       q    Type
REMARK                         _______ _______ _______ _____ _____    ______ ____
ROOT
ATOM      1  CA  CYS A   1      -5.162  15.358   9.464  0.00  0.00    +0.145 C 
ENDROOT
BRANCH   1   2
ATOM      2  N   CYS A   1      -5.245  16.772   9.035  0.00  0.00    -0.238 NA
ATOM      3  H   CYS A   1      -6.031  17.052   8.414  0.00  0.00    +0.142 HD
ENDBRANCH   1   2
BRANCH   1   4
ATOM      4  CB  CYS A   1      -6.553  14.785   9.784  0.00  0.00    +0.094 C 
ATOM      5  SG  CYS A   1      -7.410  15.740  11.072  0.00  0.00    -0.080 S 
ENDBRANCH   1   4
BRANCH   1   6
ATOM      6  C   CYS A   1      -4.612  14.618   8.282  0.00  0.00    +0.225 C 
ATOM      7  O   CYS A   1      -5.258  14.614   7.234  0.00  0.00    -0.287 OA
ENDBRANCH   1   6
TORSDOF 3
REMARK  Name = ../refined-set-2016/2q7y/2q7y_pocket.pdb
REMARK  269 active torsions:
REMARK  status: ('A' for Active; 'I' for Inactive)
REMARK    1  A    between atoms: _1  and  _3
REMARK    2  A    between atoms: _3  and  _4
REMARK    3  A    between atoms: _3  and  _6
REMARK    4  A    between atoms: _8  and  _10
REMARK    5  A    between atoms: _10  and  _11
REMARK    6  A    between atoms: _10  and  _13
REMARK    7  A    between atoms: _13  and  _14
REMARK    8  A    between atoms: _14  and  _15
REMARK    9  A    between atoms: _20  and  _22
REMARK   10  A    between atoms: _22  and  _23
REMARK   11  A    between atoms: _22  and  _25
REMARK   12  A    between atoms: _25  and  _26
REMARK   13  A    between atoms: _32  and  _34
REMARK   14  A    between atoms: _34  and  _35
REMARK   15  A    between atoms: _34  and  _37
REMARK   16  A    between atoms: _37  and  _38
REMARK   17  A    between atoms: _40  and  _42
REMARK   18  A    between atoms: _42  and  _43
REMARK   19  A    between atoms: _42  and  _45
REMARK   20  A    between atoms: _45  and  _46
REMARK   21  A    between atoms: _51  and  _53
REMARK   22  A    between atoms: _53  and  _54
REMARK   23  A    between atoms: _53  and  _56
REMARK   24  A    between atoms: _56  and  _57
REMARK   25  A    between atoms: _57  and  _58
REMARK   26  A    between atoms: _60  and  _62
REMARK   27  A    between atoms: _62  and  _63
REMARK   28  A    between atoms: _62  and  _65
REMARK   29  A    between atoms: _65  and  _66
REMARK   30  A    between atoms: _72  and  _74
REMARK   31  A    between atoms: _74  and  _75
REMARK   32  A    between atoms: _74  and  _77
REMARK   33  A    between atoms: _77  and  _78
REMARK   34  A    between atoms: _78  and  _79
REMARK   35  A    between atoms: _84  and  _86
REMARK   36  A    between atoms: _86  and  _87
REMARK   37  A    between atoms: _86  and  _89
REMARK   38  A    between atoms: _92  and  _94
REMARK   39  A    between atoms: _94  and  _95
REMARK   40  A    between atoms: _94  and  _97
REMARK   41  A    between atoms: _97  and  _98
REMARK   42  A    between atoms: _103  and  _104
REMARK   43  A    between atoms: _106  and  _108
REMARK   44  A    between atoms: _108  and  _109
REMARK   45  A    between atoms: _108  and  _111
REMARK   46  A    between atoms: _111  and  _112
REMARK   47  A    between atoms: _112  and  _113
REMARK   48  A    between atoms: _113  and  _114
REMARK   49  A    between atoms: _123  and  _125
REMARK   50  A    between atoms: _125  and  _126
REMARK   51  A    between atoms: _125  and  _128
REMARK   52  A    between atoms: _131  and  _133
REMARK   53  A    between atoms: _133  and  _134
REMARK   54  A    between atoms: _133  and  _136
REMARK   55  A    between atoms: _136  and  _137
REMARK   56  A    between atoms: _139  and  _141
REMARK   57  A    between atoms: _141  and  _142
REMARK   58  A    between atoms: _141  and  _144
REMARK   59  A    between atoms: _144  and  _145
REMARK   60  A    between atoms: _151  and  _153
REMARK   61  A    between atoms: _153  and  _154
REMARK   62  A    between atoms: _153  and  _156
REMARK   63  A    between atoms: _156  and  _157
REMARK   64  A    between atoms: _160  and  _162
REMARK   65  A    between atoms: _162  and  _163
REMARK   66  A    between atoms: _162  and  _165
REMARK   67  A    between atoms: _165  and  _166
REMARK   68  A    between atoms: _166  and  _167
REMARK   69  A    between atoms: _167  and  _168
REMARK   70  A    between atoms: _177  and  _179
REMARK   71  A    between atoms: _179  and  _180
REMARK   72  A    between atoms: _179  and  _182
REMARK   73  A    between atoms: _182  and  _183
REMARK   74  A    between atoms: _186  and  _188
REMARK   75  A    between atoms: _188  and  _189
REMARK   76  A    between atoms: _188  and  _191
REMARK   77  A    between atoms: _191  and  _192
REMARK   78  A    between atoms: _195  and  _197
REMARK   79  A    between atoms: _197  and  _198
REMARK   80  A    between atoms: _197  and  _200
REMARK   81  A    between atoms: _200  and  _201
REMARK   82  A    between atoms: _201  and  _202
REMARK   83  A    between atoms: _207  and  _209
REMARK   84  A    between atoms: _209  and  _210
REMARK   85  A    between atoms: _209  and  _212
REMARK   86  A    between atoms: _212  and  _213
REMARK   87  A    between atoms: _213  and  _214
REMARK   88  A    between atoms: _217  and  _219
REMARK   89  A    between atoms: _219  and  _220
REMARK   90  A    between atoms: _219  and  _222
REMARK   91  A    between atoms: _222  and  _223
REMARK   92  A    between atoms: _226  and  _228
REMARK   93  A    between atoms: _228  and  _229
REMARK   94  A    between atoms: _228  and  _231
REMARK   95  A    between atoms: _234  and  _236
REMARK   96  A    between atoms: _236  and  _237
REMARK   97  A    between atoms: _236  and  _239
REMARK   98  A    between atoms: _239  and  _240
REMARK   99  A    between atoms: _240  and  _241
REMARK  100  A    between atoms: _241  and  _242
REMARK  101  A    between atoms: _242  and  _243
REMARK  102  A    between atoms: _247  and  _249
REMARK  103  A    between atoms: _249  and  _250
REMARK  104  A    between atoms: _249  and  _252
REMARK  105  A    between atoms: _252  and  _253
REMARK  106  A    between atoms: _253  and  _254
REMARK  107  A    between atoms: _256  and  _258
REMARK  108  A    between atoms: _258  and  _259
REMARK  109  A    between atoms: _258  and  _261
REMARK  110  A    between atoms: _261  and  _262
REMARK  111  A    between atoms: _262  and  _263
REMARK  112  A    between atoms: _265  and  _267
REMARK  113  A    between atoms: _267  and  _268
REMARK  114  A    between atoms: _267  and  _270
REMARK  115  A    between atoms: _270  and  _271
REMARK  116  A    between atoms: _273  and  _275
REMARK  117  A    between atoms: _275  and  _276
REMARK  118  A    between atoms: _275  and  _278
REMARK  119  A    between atoms: _278  and  _279
REMARK  120  A    between atoms: _279  and  _280
REMARK  121  A    between atoms: _283  and  _285
REMARK  122  A    between atoms: _285  and  _286
REMARK  123  A    between atoms: _285  and  _288
REMARK  124  A    between atoms: _288  and  _289
REMARK  125  A    between atoms: _292  and  _294
REMARK  126  A    between atoms: _294  and  _295
REMARK  127  A    between atoms: _294  and  _297
REMARK  128  A    between atoms: _297  and  _298
REMARK  129  A    between atoms: _301  and  _303
REMARK  130  A    between atoms: _303  and  _304
REMARK  131  A    between atoms: _303  and  _306
REMARK  132  A    between atoms: _306  and  _307
REMARK  133  A    between atoms: _307  and  _308
REMARK  134  A    between atoms: _311  and  _313
REMARK  135  A    between atoms: _313  and  _314
REMARK  136  A    between atoms: _313  and  _316
REMARK  137  A    between atoms: _316  and  _317
REMARK  138  A    between atoms: _320  and  _322
REMARK  139  A    between atoms: _322  and  _323
REMARK  140  A    between atoms: _322  and  _325
REMARK  141  A    between atoms: _325  and  _326
REMARK  142  A    between atoms: _326  and  _327
REMARK  143  A    between atoms: _332  and  _334
REMARK  144  A    between atoms: _334  and  _335
REMARK  145  A    between atoms: _334  and  _337
REMARK  146  A    between atoms: _337  and  _338
REMARK  147  A    between atoms: _341  and  _343
REMARK  148  A    between atoms: _343  and  _344
REMARK  149  A    between atoms: _343  and  _346
REMARK  150  A    between atoms: _346  and  _347
REMARK  151  A    between atoms: _349  and  _351
REMARK  152  A    between atoms: _351  and  _352
REMARK  153  A    between atoms: _355  and  _357
REMARK  154  A    between atoms: _357  and  _358
REMARK  155  A    between atoms: _357  and  _360
REMARK  156  A    between atoms: _360  and  _361
REMARK  157  A    between atoms: _367  and  _369
REMARK  158  A    between atoms: _369  and  _370
REMARK  159  A    between atoms: _369  and  _372
REMARK  160  A    between atoms: _372  and  _373
REMARK  161  A    between atoms: _376  and  _378
REMARK  162  A    between atoms: _378  and  _379
REMARK  163  A    between atoms: _378  and  _381
REMARK  164  A    between atoms: _381  and  _382
REMARK  165  A    between atoms: _387  and  _389
REMARK  166  A    between atoms: _389  and  _390
REMARK  167  A    between atoms: _389  and  _392
REMARK  168  A    between atoms: _395  and  _397
REMARK  169  A    between atoms: _397  and  _398
REMARK  170  A    between atoms: _401  and  _403
REMARK  171  A    between atoms: _403  and  _404
REMARK  172  A    between atoms: _403  and  _406
REMARK  173  A    between atoms: _406  and  _407
REMARK  174  A    between atoms: _413  and  _415
REMARK  175  A    between atoms: _415  and  _416
REMARK  176  A    between atoms: _415  and  _418
REMARK  177  A    between atoms: _418  and  _419
REMARK  178  A    between atoms: _419  and  _420
REMARK  179  A    between atoms: _425  and  _427
REMARK  180  A    between atoms: _427  and  _428
REMARK  181  A    between atoms: _427  and  _430
REMARK  182  A    between atoms: _430  and  _431
REMARK  183  A    between atoms: _431  and  _432
REMARK  184  A    between atoms: _432  and  _433
REMARK  185  A    between atoms: _433  and  _434
REMARK  186  A    between atoms: _438  and  _440
REMARK  187  A    between atoms: _440  and  _441
REMARK  188  A    between atoms: _440  and  _443
REMARK  189  A    between atoms: _446  and  _448
REMARK  190  A    between atoms: _448  and  _449
REMARK  191  A    between atoms: _448  and  _451
REMARK  192  A    between atoms: _454  and  _456
REMARK  193  A    between atoms: _456  and  _457
REMARK  194  A    between atoms: _456  and  _459
REMARK  195  A    between atoms: _459  and  _460
REMARK  196  A    between atoms: _460  and  _461
REMARK  197  A    between atoms: _461  and  _462
REMARK  198  A    between atoms: _471  and  _473
REMARK  199  A    between atoms: _473  and  _474
REMARK  200  A    between atoms: _473  and  _476
REMARK  201  A    between atoms: _476  and  _477
REMARK  202  A    between atoms: _483  and  _485
REMARK  203  A    between atoms: _485  and  _486
REMARK  204  A    between atoms: _485  and  _488
REMARK  205  A    between atoms: _488  and  _489
REMARK  206  A    between atoms: _499  and  _501
REMARK  207  A    between atoms: _501  and  _502
REMARK  208  A    between atoms: _501  and  _504
REMARK  209  A    between atoms: _504  and  _505
REMARK  210  A    between atoms: _508  and  _510
REMARK  211  A    between atoms: _510  and  _511
REMARK  212  A    between atoms: _510  and  _513
REMARK  213  A    between atoms: _513  and  _514
REMARK  214  A    between atoms: _524  and  _526
REMARK  215  A    between atoms: _526  and  _527
REMARK  216  A    between atoms: _526  and  _529
REMARK  217  A    between atoms: _529  and  _530
REMARK  218  A    between atoms: _534  and  _535
REMARK  219  A    between atoms: _540  and  _542
REMARK  220  A    between atoms: _542  and  _543
REMARK  221  A    between atoms: _542  and  _545
REMARK  222  A    between atoms: _545  and  _546
REMARK  223  A    between atoms: _549  and  _551
REMARK  224  A    between atoms: _551  and  _552
REMARK  225  A    between atoms: _551  and  _554
REMARK  226  A    between atoms: _554  and  _555
REMARK  227  A    between atoms: _558  and  _560
REMARK  228  A    between atoms: _560  and  _561
REMARK  229  A    between atoms: _564  and  _566
REMARK  230  A    between atoms: _566  and  _567
REMARK  231  A    between atoms: _566  and  _569
REMARK  232  A    between atoms: _569  and  _570
REMARK  233  A    between atoms: _573  and  _575
REMARK  234  A    between atoms: _575  and  _576
REMARK  235  A    between atoms: _575  and  _578
REMARK  236  A    between atoms: _578  and  _579
REMARK  237  A    between atoms: _579  and  _580
REMARK  238  A    between atoms: _585  and  _587
REMARK  239  A    between atoms: _587  and  _588
REMARK  240  A    between atoms: _590  and  _592
REMARK  241  A    between atoms: _592  and  _593
REMARK  242  A    between atoms: _592  and  _595
REMARK  243  A    between atoms: _595  and  _596
REMARK  244  A    between atoms: _599  and  _601
REMARK  245  A    between atoms: _601  and  _602
REMARK  246  A    between atoms: _601  and  _604
REMARK  247  A    between atoms: _604  and  _605
REMARK  248  A    between atoms: _607  and  _609
REMARK  249  A    between atoms: _609  and  _610
REMARK  250  A    between atoms: _613  and  _615
REMARK  251  A    between atoms: _615  and  _616
REMARK  252  A    between atoms: _615  and  _618
REMARK  253  A    between atoms: _618  and  _619
REMARK  254  A    between atoms: _622  and  _624
REMARK  255  A    between atoms: _624  and  _625
REMARK  256  A    between atoms: _624  and  _627
REMARK  257  A    between atoms: _630  and  _632
REMARK  258  A    between atoms: _632  and  _633
REMARK  259  A    between atoms: _632  and  _635
REMARK  260  A    between atoms: _635  and  _636
REMARK  261  A    between atoms: _636  and  _637
REMARK  262  A    between atoms: _642  and  _644
REMARK  263  A    between atoms: _644  and  _645
REMARK  264  A    between atoms: _644  and  _647
REMARK  265  A    between atoms: _647  and  _648
REMARK  266  A    between atoms: _651  and  _653
REMARK  267  A    between atoms: _653  and  _654
REMARK  268  A    between atoms: _653  and  _656
REMARK  269  A    between atoms: _656  and  _657
REMARK                            x       y       z     vdW  Elec       q    Type
REMARK                         _______ _______ _______ _____ _____    ______ ____
ROOT
ATOM      1  CB  GLN A   1      -4.814   9.191   6.458  0.00  0.00    +0.035 C 
ENDROOT
BRANCH   1   2
ATOM      2  CA  GLN A   1      -3.362   9.652   6.639  0.00  0.00    +0.134 C 
BRANCH   2   3
ATOM      3  N   GLN A   1      -3.310  11.099   6.586  0.00  0.00    -0.239 NA
ATOM      4  H   GLN A   1      -3.709  11.587   5.759  0.00  0.00    +0.142 HD
ENDBRANCH   2   3
BRANCH   2   5
ATOM      5  C   GLN A   1      -2.461   9.054   5.577  0.00  0.00    +0.224 C 
ATOM      6  O   GLN A   1      -2.513   9.469   4.431  0.00  0.00    -0.287 OA
ENDBRANCH   2   5
ENDBRANCH   1   2
BRANCH   1   7
ATOM      7  CG  GLN A   1      -4.995   7.695   6.680  0.00  0.00    +0.087 C 
BRANCH   7   8
ATOM      8  CD  GLN A   1      -6.339   7.244   6.205  0.00  0.00    +0.219 C 
ATOM      9  OE1 GLN A   1      -7.325   7.928   6.411  0.00  0.00    -0.275 OA
ATOM     10  NE2 GLN A   1      -6.390   6.100   5.560  0.00  0.00    -0.329 N 
ATOM     11 HE21 GLN A   1      -5.521   5.550   5.408  0.00  0.00    +0.145 HD
ATOM     12 HE22 GLN A   1      -7.300   5.745   5.202  0.00  0.00    +0.145 HD
ENDBRANCH   7   8
ENDBRANCH   1   7
TORSDOF 5
REMARK  Name = ../refined-set-2016/2q7y/2q7y_pocket.pdb
REMARK  269 active torsions:
REMARK  status: ('A' for Active; 'I' for Inactive)
REMARK    1  A    between atoms: _1  and  _3
REMARK    2  A    between atoms: _3  and  _4
REMARK    3  A    between atoms: _3  and  _6
REMARK    4  A    between atoms: _8  and  _10
REMARK    5  A    between atoms: _10  and  _11
REMARK    6  A    between atoms: _10  and  _13
REMARK    7  A    between atoms: _13  and  _14
REMARK    8  A    between atoms: _14  and  _15
REMARK    9  A    between atoms: _20  and  _22
REMARK   10  A    between atoms: _22  and  _23
REMARK   11  A    between atoms: _22  and  _25
REMARK   12  A    between atoms: _25  and  _26
REMARK   13  A    between atoms: _32  and  _34
REMARK   14  A    between atoms: _34  and  _35
REMARK   15  A    between atoms: _34  and  _37
REMARK   16  A    between atoms: _37  and  _38
REMARK   17  A    between atoms: _40  and  _42
REMARK   18  A    between atoms: _42  and  _43
REMARK   19  A    between atoms: _42  and  _45
REMARK   20  A    between atoms: _45  and  _46
REMARK   21  A    between atoms: _51  and  _53
REMARK   22  A    between atoms: _53  and  _54
REMARK   23  A    between atoms: _53  and  _56
REMARK   24  A    between atoms: _56  and  _57
REMARK   25  A    between atoms: _57  and  _58
REMARK   26  A    between atoms: _60  and  _62
REMARK   27  A    between atoms: _62  and  _63
REMARK   28  A    between atoms: _62  and  _65
REMARK   29  A    between atoms: _65  and  _66
REMARK   30  A    between atoms: _72  and  _74
REMARK   31  A    between atoms: _74  and  _75
REMARK   32  A    between atoms: _74  and  _77
REMARK   33  A    between atoms: _77  and  _78
REMARK   34  A    between atoms: _78  and  _79
REMARK   35  A    between atoms: _84  and  _86
REMARK   36  A    between atoms: _86  and  _87
REMARK   37  A    between atoms: _86  and  _89
REMARK   38  A    between atoms: _92  and  _94
REMARK   39  A    between atoms: _94  and  _95
REMARK   40  A    between atoms: _94  and  _97
REMARK   41  A    between atoms: _97  and  _98
REMARK   42  A    between atoms: _103  and  _104
REMARK   43  A    between atoms: _106  and  _108
REMARK   44  A    between atoms: _108  and  _109
REMARK   45  A    between atoms: _108  and  _111
REMARK   46  A    between atoms: _111  and  _112
REMARK   47  A    between atoms: _112  and  _113
REMARK   48  A    between atoms: _113  and  _114
REMARK   49  A    between atoms: _123  and  _125
REMARK   50  A    between atoms: _125  and  _126
REMARK   51  A    between atoms: _125  and  _128
REMARK   52  A    between atoms: _131  and  _133
REMARK   53  A    between atoms: _133  and  _134
REMARK   54  A    between atoms: _133  and  _136
REMARK   55  A    between atoms: _136  and  _137
REMARK   56  A    between atoms: _139  and  _141
REMARK   57  A    between atoms: _141  and  _142
REMARK   58  A    between atoms: _141  and  _144
REMARK   59  A    between atoms: _144  and  _145
REMARK   60  A    between atoms: _151  and  _153
REMARK   61  A    between atoms: _153  and  _154
REMARK   62  A    between atoms: _153  and  _156
REMARK   63  A    between atoms: _156  and  _157
REMARK   64  A    between atoms: _160  and  _162
REMARK   65  A    between atoms: _162  and  _163
REMARK   66  A    between atoms: _162  and  _165
REMARK   67  A    between atoms: _165  and  _166
REMARK   68  A    between atoms: _166  and  _167
REMARK   69  A    between atoms: _167  and  _168
REMARK   70  A    between atoms: _177  and  _179
REMARK   71  A    between atoms: _179  and  _180
REMARK   72  A    between atoms: _179  and  _182
REMARK   73  A    between atoms: _182  and  _183
REMARK   74  A    between atoms: _186  and  _188
REMARK   75  A    between atoms: _188  and  _189
REMARK   76  A    between atoms: _188  and  _191
REMARK   77  A    between atoms: _191  and  _192
REMARK   78  A    between atoms: _195  and  _197
REMARK   79  A    between atoms: _197  and  _198
REMARK   80  A    between atoms: _197  and  _200
REMARK   81  A    between atoms: _200  and  _201
REMARK   82  A    between atoms: _201  and  _202
REMARK   83  A    between atoms: _207  and  _209
REMARK   84  A    between atoms: _209  and  _210
REMARK   85  A    between atoms: _209  and  _212
REMARK   86  A    between atoms: _212  and  _213
REMARK   87  A    between atoms: _213  and  _214
REMARK   88  A    between atoms: _217  and  _219
REMARK   89  A    between atoms: _219  and  _220
REMARK   90  A    between atoms: _219  and  _222
REMARK   91  A    between atoms: _222  and  _223
REMARK   92  A    between atoms: _226  and  _228
REMARK   93  A    between atoms: _228  and  _229
REMARK   94  A    between atoms: _228  and  _231
REMARK   95  A    between atoms: _234  and  _236
REMARK   96  A    between atoms: _236  and  _237
REMARK   97  A    between atoms: _236  and  _239
REMARK   98  A    between atoms: _239  and  _240
REMARK   99  A    between atoms: _240  and  _241
REMARK  100  A    between atoms: _241  and  _242
REMARK  101  A    between atoms: _242  and  _243
REMARK  102  A    between atoms: _247  and  _249
REMARK  103  A    between atoms: _249  and  _250
REMARK  104  A    between atoms: _249  and  _252
REMARK  105  A    between atoms: _252  and  _253
REMARK  106  A    between atoms: _253  and  _254
REMARK  107  A    between atoms: _256  and  _258
REMARK  108  A    between atoms: _258  and  _259
REMARK  109  A    between atoms: _258  and  _261
REMARK  110  A    between atoms: _261  and  _262
REMARK  111  A    between atoms: _262  and  _263
REMARK  112  A    between atoms: _265  and  _267
REMARK  113  A    between atoms: _267  and  _268
REMARK  114  A    between atoms: _267  and  _270
REMARK  115  A    between atoms: _270  and  _271
REMARK  116  A    between atoms: _273  and  _275
REMARK  117  A    between atoms: _275  and  _276
REMARK  118  A    between atoms: _275  and  _278
REMARK  119  A    between atoms: _278  and  _279
REMARK  120  A    between atoms: _279  and  _280
REMARK  121  A    between atoms: _283  and  _285
REMARK  122  A    between atoms: _285  and  _286
REMARK  123  A    between atoms: _285  and  _288
REMARK  124  A    between atoms: _288  and  _289
REMARK  125  A    between atoms: _292  and  _294
REMARK  126  A    between atoms: _294  and  _295
REMARK  127  A    between atoms: _294  and  _297
REMARK  128  A    between atoms: _297  and  _298
REMARK  129  A    between atoms: _301  and  _303
REMARK  130  A    between atoms: _303  and  _304
REMARK  131  A    between atoms: _303  and  _306
REMARK  132  A    between atoms: _306  and  _307
REMARK  133  A    between atoms: _307  and  _308
REMARK  134  A    between atoms: _311  and  _313
REMARK  135  A    between atoms: _313  and  _314
REMARK  136  A    between atoms: _313  and  _316
REMARK  137  A    between atoms: _316  and  _317
REMARK  138  A    between atoms: _320  and  _322
REMARK  139  A    between atoms: _322  and  _323
REMARK  140  A    between atoms: _322  and  _325
REMARK  141  A    between atoms: _325  and  _326
REMARK  142  A    between atoms: _326  and  _327
REMARK  143  A    between atoms: _332  and  _334
REMARK  144  A    between atoms: _334  and  _335
REMARK  145  A    between atoms: _334  and  _337
REMARK  146  A    between atoms: _337  and  _338
REMARK  147  A    between atoms: _341  and  _343
REMARK  148  A    between atoms: _343  and  _344
REMARK  149  A    between atoms: _343  and  _346
REMARK  150  A    between atoms: _346  and  _347
REMARK  151  A    between atoms: _349  and  _351
REMARK  152  A    between atoms: _351  and  _352
REMARK  153  A    between atoms: _355  and  _357
REMARK  154  A    between atoms: _357  and  _358
REMARK  155  A    between atoms: _357  and  _360
REMARK  156  A    between atoms: _360  and  _361
REMARK  157  A    between atoms: _367  and  _369
REMARK  158  A    between atoms: _369  and  _370
REMARK  159  A    between atoms: _369  and  _372
REMARK  160  A    between atoms: _372  and  _373
REMARK  161  A    between atoms: _376  and  _378
REMARK  162  A    between atoms: _378  and  _379
REMARK  163  A    between atoms: _378  and  _381
REMARK  164  A    between atoms: _381  and  _382
REMARK  165  A    between atoms: _387  and  _389
REMARK  166  A    between atoms: _389  and  _390
REMARK  167  A    between atoms: _389  and  _392
REMARK  168  A    between atoms: _395  and  _397
REMARK  169  A    between atoms: _397  and  _398
REMARK  170  A    between atoms: _401  and  _403
REMARK  171  A    between atoms: _403  and  _404
REMARK  172  A    between atoms: _403  and  _406
REMARK  173  A    between atoms: _406  and  _407
REMARK  174  A    between atoms: _413  and  _415
REMARK  175  A    between atoms: _415  and  _416
REMARK  176  A    between atoms: _415  and  _418
REMARK  177  A    between atoms: _418  and  _419
REMARK  178  A    between atoms: _419  and  _420
REMARK  179  A    between atoms: _425  and  _427
REMARK  180  A    between atoms: _427  and  _428
REMARK  181  A    between atoms: _427  and  _430
REMARK  182  A    between atoms: _430  and  _431
REMARK  183  A    between atoms: _431  and  _432
REMARK  184  A    between atoms: _432  and  _433
REMARK  185  A    between atoms: _433  and  _434
REMARK  186  A    between atoms: _438  and  _440
REMARK  187  A    between atoms: _440  and  _441
REMARK  188  A    between atoms: _440  and  _443
REMARK  189  A    between atoms: _446  and  _448
REMARK  190  A    between atoms: _448  and  _449
REMARK  191  A    between atoms: _448  and  _451
REMARK  192  A    between atoms: _454  and  _456
REMARK  193  A    between atoms: _456  and  _457
REMARK  194  A    between atoms: _456  and  _459
REMARK  195  A    between atoms: _459  and  _460
REMARK  196  A    between atoms: _460  and  _461
REMARK  197  A    between atoms: _461  and  _462
REMARK  198  A    between atoms: _471  and  _473
REMARK  199  A    between atoms: _473  and  _474
REMARK  200  A    between atoms: _473  and  _476
REMARK  201  A    between atoms: _476  and  _477
REMARK  202  A    between atoms: _483  and  _485
REMARK  203  A    between atoms: _485  and  _486
REMARK  204  A    between atoms: _485  and  _488
REMARK  205  A    between atoms: _488  and  _489
REMARK  206  A    between atoms: _499  and  _501
REMARK  207  A    between atoms: _501  and  _502
REMARK  208  A    between atoms: _501  and  _504
REMARK  209  A    between atoms: _504  and  _505
REMARK  210  A    between atoms: _508  and  _510
REMARK  211  A    between atoms: _510  and  _511
REMARK  212  A    between atoms: _510  and  _513
REMARK  213  A    between atoms: _513  and  _514
REMARK  214  A    between atoms: _524  and  _526
REMARK  215  A    between atoms: _526  and  _527
REMARK  216  A    between atoms: _526  and  _529
REMARK  217  A    between atoms: _529  and  _530
REMARK  218  A    between atoms: _534  and  _535
REMARK  219  A    between atoms: _540  and  _542
REMARK  220  A    between atoms: _542  and  _543
REMARK  221  A    between atoms: _542  and  _545
REMARK  222  A    between atoms: _545  and  _546
REMARK  223  A    between atoms: _549  and  _551
REMARK  224  A    between atoms: _551  and  _552
REMARK  225  A    between atoms: _551  and  _554
REMARK  226  A    between atoms: _554  and  _555
REMARK  227  A    between atoms: _558  and  _560
REMARK  228  A    between atoms: _560  and  _561
REMARK  229  A    between atoms: _564  and  _566
REMARK  230  A    between atoms: _566  and  _567
REMARK  231  A    between atoms: _566  and  _569
REMARK  232  A    between atoms: _569  and  _570
REMARK  233  A    between atoms: _573  and  _575
REMARK  234  A    between atoms: _575  and  _576
REMARK  235  A    between atoms: _575  and  _578
REMARK  236  A    between atoms: _578  and  _579
REMARK  237  A    between atoms: _579  and  _580
REMARK  238  A    between atoms: _585  and  _587
REMARK  239  A    between atoms: _587  and  _588
REMARK  240  A    between atoms: _590  and  _592
REMARK  241  A    between atoms: _592  and  _593
REMARK  242  A    between atoms: _592  and  _595
REMARK  243  A    between atoms: _595  and  _596
REMARK  244  A    between atoms: _599  and  _601
REMARK  245  A    between atoms: _601  and  _602
REMARK  246  A    between atoms: _601  and  _604
REMARK  247  A    between atoms: _604  and  _605
REMARK  248  A    between atoms: _607  and  _609
REMARK  249  A    between atoms: _609  and  _610
REMARK  250  A    between atoms: _613  and  _615
REMARK  251  A    between atoms: _615  and  _616
REMARK  252  A    between atoms: _615  and  _618
REMARK  253  A    between atoms: _618  and  _619
REMARK  254  A    between atoms: _622  and  _624
REMARK  255  A    between atoms: _624  and  _625
REMARK  256  A    between atoms: _624  and  _627
REMARK  257  A    between atoms: _630  and  _632
REMARK  258  A    between atoms: _632  and  _633
REMARK  259  A    between atoms: _632  and  _635
REMARK  260  A    between atoms: _635  and  _636
REMARK  261  A    between atoms: _636  and  _637
REMARK  262  A    between atoms: _642  and  _644
REMARK  263  A    between atoms: _644  and  _645
REMARK  264  A    between atoms: _644  and  _647
REMARK  265  A    between atoms: _647  and  _648
REMARK  266  A    between atoms: _651  and  _653
REMARK  267  A    between atoms: _653  and  _654
REMARK  268  A    between atoms: _653  and  _656
REMARK  269  A    between atoms: _656  and  _657
REMARK                            x       y       z     vdW  Elec       q    Type
REMARK                         _______ _______ _______ _____ _____    ______ ____
ROOT
ATOM      1  CB  PHE A   1      -2.275  -1.919   0.275  0.00  0.00    +0.051 C 
ENDROOT
BRANCH   1   2
ATOM      2  CG  PHE A   1      -3.356  -1.162   1.023  0.00  0.00    -0.020 A 
ATOM      3  CD2 PHE A   1      -4.373  -1.850   1.677  0.00  0.00    -0.004 A 
ATOM      4  CE2 PHE A   1      -5.366  -1.153   2.366  0.00  0.00    -0.000 A 
ATOM      5  CZ  PHE A   1      -5.350   0.244   2.401  0.00  0.00    -0.000 A 
ATOM      6  CE1 PHE A   1      -4.340   0.940   1.749  0.00  0.00    -0.000 A 
ATOM      7  CD1 PHE A   1      -3.356   0.234   1.063  0.00  0.00    -0.004 A 
ENDBRANCH   1   2
BRANCH   1   8
ATOM      8  CA  PHE A   1      -0.928  -1.953   0.997  0.00  0.00    +0.137 C 
BRANCH   8   9
ATOM      9  N   PHE A   1      -0.438  -0.612   1.252  0.00  0.00    -0.239 NA
ATOM     10  H   PHE A   1      -0.261   0.008   0.436  0.00  0.00    +0.142 HD
ENDBRANCH   8   9
BRANCH   8  11
ATOM     11  C   PHE A   1       0.132  -2.677   0.149  0.00  0.00    +0.224 C 
ATOM     12  O   PHE A   1       0.260  -2.412  -1.044  0.00  0.00    -0.287 OA
ENDBRANCH   8  11
ENDBRANCH   1   8
TORSDOF 4
REMARK  Name = ../refined-set-2016/2q7y/2q7y_pocket.pdb
REMARK  269 active torsions:
REMARK  status: ('A' for Active; 'I' for Inactive)
REMARK    1  A    between atoms: _1  and  _3
REMARK    2  A    between atoms: _3  and  _4
REMARK    3  A    between atoms: _3  and  _6
REMARK    4  A    between atoms: _8  and  _10
REMARK    5  A    between atoms: _10  and  _11
REMARK    6  A    between atoms: _10  and  _13
REMARK    7  A    between atoms: _13  and  _14
REMARK    8  A    between atoms: _14  and  _15
REMARK    9  A    between atoms: _20  and  _22
REMARK   10  A    between atoms: _22  and  _23
REMARK   11  A    between atoms: _22  and  _25
REMARK   12  A    between atoms: _25  and  _26
REMARK   13  A    between atoms: _32  and  _34
REMARK   14  A    between atoms: _34  and  _35
REMARK   15  A    between atoms: _34  and  _37
REMARK   16  A    between atoms: _37  and  _38
REMARK   17  A    between atoms: _40  and  _42
REMARK   18  A    between atoms: _42  and  _43
REMARK   19  A    between atoms: _42  and  _45
REMARK   20  A    between atoms: _45  and  _46
REMARK   21  A    between atoms: _51  and  _53
REMARK   22  A    between atoms: _53  and  _54
REMARK   23  A    between atoms: _53  and  _56
REMARK   24  A    between atoms: _56  and  _57
REMARK   25  A    between atoms: _57  and  _58
REMARK   26  A    between atoms: _60  and  _62
REMARK   27  A    between atoms: _62  and  _63
REMARK   28  A    between atoms: _62  and  _65
REMARK   29  A    between atoms: _65  and  _66
REMARK   30  A    between atoms: _72  and  _74
REMARK   31  A    between atoms: _74  and  _75
REMARK   32  A    between atoms: _74  and  _77
REMARK   33  A    between atoms: _77  and  _78
REMARK   34  A    between atoms: _78  and  _79
REMARK   35  A    between atoms: _84  and  _86
REMARK   36  A    between atoms: _86  and  _87
REMARK   37  A    between atoms: _86  and  _89
REMARK   38  A    between atoms: _92  and  _94
REMARK   39  A    between atoms: _94  and  _95
REMARK   40  A    between atoms: _94  and  _97
REMARK   41  A    between atoms: _97  and  _98
REMARK   42  A    between atoms: _103  and  _104
REMARK   43  A    between atoms: _106  and  _108
REMARK   44  A    between atoms: _108  and  _109
REMARK   45  A    between atoms: _108  and  _111
REMARK   46  A    between atoms: _111  and  _112
REMARK   47  A    between atoms: _112  and  _113
REMARK   48  A    between atoms: _113  and  _114
REMARK   49  A    between atoms: _123  and  _125
REMARK   50  A    between atoms: _125  and  _126
REMARK   51  A    between atoms: _125  and  _128
REMARK   52  A    between atoms: _131  and  _133
REMARK   53  A    between atoms: _133  and  _134
REMARK   54  A    between atoms: _133  and  _136
REMARK   55  A    between atoms: _136  and  _137
REMARK   56  A    between atoms: _139  and  _141
REMARK   57  A    between atoms: _141  and  _142
REMARK   58  A    between atoms: _141  and  _144
REMARK   59  A    between atoms: _144  and  _145
REMARK   60  A    between atoms: _151  and  _153
REMARK   61  A    between atoms: _153  and  _154
REMARK   62  A    between atoms: _153  and  _156
REMARK   63  A    between atoms: _156  and  _157
REMARK   64  A    between atoms: _160  and  _162
REMARK   65  A    between atoms: _162  and  _163
REMARK   66  A    between atoms: _162  and  _165
REMARK   67  A    between atoms: _165  and  _166
REMARK   68  A    between atoms: _166  and  _167
REMARK   69  A    between atoms: _167  and  _168
REMARK   70  A    between atoms: _177  and  _179
REMARK   71  A    between atoms: _179  and  _180
REMARK   72  A    between atoms: _179  and  _182
REMARK   73  A    between atoms: _182  and  _183
REMARK   74  A    between atoms: _186  and  _188
REMARK   75  A    between atoms: _188  and  _189
REMARK   76  A    between atoms: _188  and  _191
REMARK   77  A    between atoms: _191  and  _192
REMARK   78  A    between atoms: _195  and  _197
REMARK   79  A    between atoms: _197  and  _198
REMARK   80  A    between atoms: _197  and  _200
REMARK   81  A    between atoms: _200  and  _201
REMARK   82  A    between atoms: _201  and  _202
REMARK   83  A    between atoms: _207  and  _209
REMARK   84  A    between atoms: _209  and  _210
REMARK   85  A    between atoms: _209  and  _212
REMARK   86  A    between atoms: _212  and  _213
REMARK   87  A    between atoms: _213  and  _214
REMARK   88  A    between atoms: _217  and  _219
REMARK   89  A    between atoms: _219  and  _220
REMARK   90  A    between atoms: _219  and  _222
REMARK   91  A    between atoms: _222  and  _223
REMARK   92  A    between atoms: _226  and  _228
REMARK   93  A    between atoms: _228  and  _229
REMARK   94  A    between atoms: _228  and  _231
REMARK   95  A    between atoms: _234  and  _236
REMARK   96  A    between atoms: _236  and  _237
REMARK   97  A    between atoms: _236  and  _239
REMARK   98  A    between atoms: _239  and  _240
REMARK   99  A    between atoms: _240  and  _241
REMARK  100  A    between atoms: _241  and  _242
REMARK  101  A    between atoms: _242  and  _243
REMARK  102  A    between atoms: _247  and  _249
REMARK  103  A    between atoms: _249  and  _250
REMARK  104  A    between atoms: _249  and  _252
REMARK  105  A    between atoms: _252  and  _253
REMARK  106  A    between atoms: _253  and  _254
REMARK  107  A    between atoms: _256  and  _258
REMARK  108  A    between atoms: _258  and  _259
REMARK  109  A    between atoms: _258  and  _261
REMARK  110  A    between atoms: _261  and  _262
REMARK  111  A    between atoms: _262  and  _263
REMARK  112  A    between atoms: _265  and  _267
REMARK  113  A    between atoms: _267  and  _268
REMARK  114  A    between atoms: _267  and  _270
REMARK  115  A    between atoms: _270  and  _271
REMARK  116  A    between atoms: _273  and  _275
REMARK  117  A    between atoms: _275  and  _276
REMARK  118  A    between atoms: _275  and  _278
REMARK  119  A    between atoms: _278  and  _279
REMARK  120  A    between atoms: _279  and  _280
REMARK  121  A    between atoms: _283  and  _285
REMARK  122  A    between atoms: _285  and  _286
REMARK  123  A    between atoms: _285  and  _288
REMARK  124  A    between atoms: _288  and  _289
REMARK  125  A    between atoms: _292  and  _294
REMARK  126  A    between atoms: _294  and  _295
REMARK  127  A    between atoms: _294  and  _297
REMARK  128  A    between atoms: _297  and  _298
REMARK  129  A    between atoms: _301  and  _303
REMARK  130  A    between atoms: _303  and  _304
REMARK  131  A    between atoms: _303  and  _306
REMARK  132  A    between atoms: _306  and  _307
REMARK  133  A    between atoms: _307  and  _308
REMARK  134  A    between atoms: _311  and  _313
REMARK  135  A    between atoms: _313  and  _314
REMARK  136  A    between atoms: _313  and  _316
REMARK  137  A    between atoms: _316  and  _317
REMARK  138  A    between atoms: _320  and  _322
REMARK  139  A    between atoms: _322  and  _323
REMARK  140  A    between atoms: _322  and  _325
REMARK  141  A    between atoms: _325  and  _326
REMARK  142  A    between atoms: _326  and  _327
REMARK  143  A    between atoms: _332  and  _334
REMARK  144  A    between atoms: _334  and  _335
REMARK  145  A    between atoms: _334  and  _337
REMARK  146  A    between atoms: _337  and  _338
REMARK  147  A    between atoms: _341  and  _343
REMARK  148  A    between atoms: _343  and  _344
REMARK  149  A    between atoms: _343  and  _346
REMARK  150  A    between atoms: _346  and  _347
REMARK  151  A    between atoms: _349  and  _351
REMARK  152  A    between atoms: _351  and  _352
REMARK  153  A    between atoms: _355  and  _357
REMARK  154  A    between atoms: _357  and  _358
REMARK  155  A    between atoms: _357  and  _360
REMARK  156  A    between atoms: _360  and  _361
REMARK  157  A    between atoms: _367  and  _369
REMARK  158  A    between atoms: _369  and  _370
REMARK  159  A    between atoms: _369  and  _372
REMARK  160  A    between atoms: _372  and  _373
REMARK  161  A    between atoms: _376  and  _378
REMARK  162  A    between atoms: _378  and  _379
REMARK  163  A    between atoms: _378  and  _381
REMARK  164  A    between atoms: _381  and  _382
REMARK  165  A    between atoms: _387  and  _389
REMARK  166  A    between atoms: _389  and  _390
REMARK  167  A    between atoms: _389  and  _392
REMARK  168  A    between atoms: _395  and  _397
REMARK  169  A    between atoms: _397  and  _398
REMARK  170  A    between atoms: _401  and  _403
REMARK  171  A    between atoms: _403  and  _404
REMARK  172  A    between atoms: _403  and  _406
REMARK  173  A    between atoms: _406  and  _407
REMARK  174  A    between atoms: _413  and  _415
REMARK  175  A    between atoms: _415  and  _416
REMARK  176  A    between atoms: _415  and  _418
REMARK  177  A    between atoms: _418  and  _419
REMARK  178  A    between atoms: _419  and  _420
REMARK  179  A    between atoms: _425  and  _427
REMARK  180  A    between atoms: _427  and  _428
REMARK  181  A    between atoms: _427  and  _430
REMARK  182  A    between atoms: _430  and  _431
REMARK  183  A    between atoms: _431  and  _432
REMARK  184  A    between atoms: _432  and  _433
REMARK  185  A    between atoms: _433  and  _434
REMARK  186  A    between atoms: _438  and  _440
REMARK  187  A    between atoms: _440  and  _441
REMARK  188  A    between atoms: _440  and  _443
REMARK  189  A    between atoms: _446  and  _448
REMARK  190  A    between atoms: _448  and  _449
REMARK  191  A    between atoms: _448  and  _451
REMARK  192  A    between atoms: _454  and  _456
REMARK  193  A    between atoms: _456  and  _457
REMARK  194  A    between atoms: _456  and  _459
REMARK  195  A    between atoms: _459  and  _460
REMARK  196  A    between atoms: _460  and  _461
REMARK  197  A    between atoms: _461  and  _462
REMARK  198  A    between atoms: _471  and  _473
REMARK  199  A    between atoms: _473  and  _474
REMARK  200  A    between atoms: _473  and  _476
REMARK  201  A    between atoms: _476  and  _477
REMARK  202  A    between atoms: _483  and  _485
REMARK  203  A    between atoms: _485  and  _486
REMARK  204  A    between atoms: _485  and  _488
REMARK  205  A    between atoms: _488  and  _489
REMARK  206  A    between atoms: _499  and  _501
REMARK  207  A    between atoms: _501  and  _502
REMARK  208  A    between atoms: _501  and  _504
REMARK  209  A    between atoms: _504  and  _505
REMARK  210  A    between atoms: _508  and  _510
REMARK  211  A    between atoms: _510  and  _511
REMARK  212  A    between atoms: _510  and  _513
REMARK  213  A    between atoms: _513  and  _514
REMARK  214  A    between atoms: _524  and  _526
REMARK  215  A    between atoms: _526  and  _527
REMARK  216  A    between atoms: _526  and  _529
REMARK  217  A    between atoms: _529  and  _530
REMARK  218  A    between atoms: _534  and  _535
REMARK  219  A    between atoms: _540  and  _542
REMARK  220  A    between atoms: _542  and  _543
REMARK  221  A    between atoms: _542  and  _545
REMARK  222  A    between atoms: _545  and  _546
REMARK  223  A    between atoms: _549  and  _551
REMARK  224  A    between atoms: _551  and  _552
REMARK  225  A    between atoms: _551  and  _554
REMARK  226  A    between atoms: _554  and  _555
REMARK  227  A    between atoms: _558  and  _560
REMARK  228  A    between atoms: _560  and  _561
REMARK  229  A    between atoms: _564  and  _566
REMARK  230  A    between atoms: _566  and  _567
REMARK  231  A    between atoms: _566  and  _569
REMARK  232  A    between atoms: _569  and  _570
REMARK  233  A    between atoms: _573  and  _575
REMARK  234  A    between atoms: _575  and  _576
REMARK  235  A    between atoms: _575  and  _578
REMARK  236  A    between atoms: _578  and  _579
REMARK  237  A    between atoms: _579  and  _580
REMARK  238  A    between atoms: _585  and  _587
REMARK  239  A    between atoms: _587  and  _588
REMARK  240  A    between atoms: _590  and  _592
REMARK  241  A    between atoms: _592  and  _593
REMARK  242  A    between atoms: _592  and  _595
REMARK  243  A    between atoms: _595  and  _596
REMARK  244  A    between atoms: _599  and  _601
REMARK  245  A    between atoms: _601  and  _602
REMARK  246  A    between atoms: _601  and  _604
REMARK  247  A    between atoms: _604  and  _605
REMARK  248  A    between atoms: _607  and  _609
REMARK  249  A    between atoms: _609  and  _610
REMARK  250  A    between atoms: _613  and  _615
REMARK  251  A    between atoms: _615  and  _616
REMARK  252  A    between atoms: _615  and  _618
REMARK  253  A    between atoms: _618  and  _619
REMARK  254  A    between atoms: _622  and  _624
REMARK  255  A    between atoms: _624  and  _625
REMARK  256  A    between atoms: _624  and  _627
REMARK  257  A    between atoms: _630  and  _632
REMARK  258  A    between atoms: _632  and  _633
REMARK  259  A    between atoms: _632  and  _635
REMARK  260  A    between atoms: _635  and  _636
REMARK  261  A    between atoms: _636  and  _637
REMARK  262  A    between atoms: _642  and  _644
REMARK  263  A    between atoms: _644  and  _645
REMARK  264  A    between atoms: _644  and  _647
REMARK  265  A    between atoms: _647  and  _648
REMARK  266  A    between atoms: _651  and  _653
REMARK  267  A    between atoms: _653  and  _654
REMARK  268  A    between atoms: _653  and  _656
REMARK  269  A    between atoms: _656  and  _657
REMARK                            x       y       z     vdW  Elec       q    Type
REMARK                         _______ _______ _______ _____ _____    ______ ____
ROOT
ATOM      1  CA  SER A   1      -1.967   9.222  10.831  0.00  0.00    +0.163 C 
ENDROOT
BRANCH   1   2
ATOM      2  N   SER A   1      -1.532   7.820  10.928  0.00  0.00    -0.237 NA
ATOM      3  H   SER A   1      -1.452   7.385  11.869  0.00  0.00    +0.142 HD
ENDBRANCH   1   2
BRANCH   1   4
ATOM      4  C   SER A   1      -1.212  10.183  11.747  0.00  0.00    +0.227 C 
ATOM      5  O   SER A   1      -0.769   9.803  12.837  0.00  0.00    -0.287 OA
ENDBRANCH   1   4
BRANCH   1   6
ATOM      6  CB  SER A   1      -3.447   9.310  11.229  0.00  0.00    +0.162 C 
BRANCH   6   7
ATOM      7  OG  SER A   1      -4.210   8.668  10.232  0.00  0.00    -0.380 OA
ATOM      8  H   SER A   1      -5.170   8.714  10.471  0.00  0.00    +0.211 HD
ENDBRANCH   6   7
ENDBRANCH   1   6
TORSDOF 4
REMARK  Name = ../refined-set-2016/2q7y/2q7y_pocket.pdb
REMARK  269 active torsions:
REMARK  status: ('A' for Active; 'I' for Inactive)
REMARK    1  A    between atoms: _1  and  _3
REMARK    2  A    between atoms: _3  and  _4
REMARK    3  A    between atoms: _3  and  _6
REMARK    4  A    between atoms: _8  and  _10
REMARK    5  A    between atoms: _10  and  _11
REMARK    6  A    between atoms: _10  and  _13
REMARK    7  A    between atoms: _13  and  _14
REMARK    8  A    between atoms: _14  and  _15
REMARK    9  A    between atoms: _20  and  _22
REMARK   10  A    between atoms: _22  and  _23
REMARK   11  A    between atoms: _22  and  _25
REMARK   12  A    between atoms: _25  and  _26
REMARK   13  A    between atoms: _32  and  _34
REMARK   14  A    between atoms: _34  and  _35
REMARK   15  A    between atoms: _34  and  _37
REMARK   16  A    between atoms: _37  and  _38
REMARK   17  A    between atoms: _40  and  _42
REMARK   18  A    between atoms: _42  and  _43
REMARK   19  A    between atoms: _42  and  _45
REMARK   20  A    between atoms: _45  and  _46
REMARK   21  A    between atoms: _51  and  _53
REMARK   22  A    between atoms: _53  and  _54
REMARK   23  A    between atoms: _53  and  _56
REMARK   24  A    between atoms: _56  and  _57
REMARK   25  A    between atoms: _57  and  _58
REMARK   26  A    between atoms: _60  and  _62
REMARK   27  A    between atoms: _62  and  _63
REMARK   28  A    between atoms: _62  and  _65
REMARK   29  A    between atoms: _65  and  _66
REMARK   30  A    between atoms: _72  and  _74
REMARK   31  A    between atoms: _74  and  _75
REMARK   32  A    between atoms: _74  and  _77
REMARK   33  A    between atoms: _77  and  _78
REMARK   34  A    between atoms: _78  and  _79
REMARK   35  A    between atoms: _84  and  _86
REMARK   36  A    between atoms: _86  and  _87
REMARK   37  A    between atoms: _86  and  _89
REMARK   38  A    between atoms: _92  and  _94
REMARK   39  A    between atoms: _94  and  _95
REMARK   40  A    between atoms: _94  and  _97
REMARK   41  A    between atoms: _97  and  _98
REMARK   42  A    between atoms: _103  and  _104
REMARK   43  A    between atoms: _106  and  _108
REMARK   44  A    between atoms: _108  and  _109
REMARK   45  A    between atoms: _108  and  _111
REMARK   46  A    between atoms: _111  and  _112
REMARK   47  A    between atoms: _112  and  _113
REMARK   48  A    between atoms: _113  and  _114
REMARK   49  A    between atoms: _123  and  _125
REMARK   50  A    between atoms: _125  and  _126
REMARK   51  A    between atoms: _125  and  _128
REMARK   52  A    between atoms: _131  and  _133
REMARK   53  A    between atoms: _133  and  _134
REMARK   54  A    between atoms: _133  and  _136
REMARK   55  A    between atoms: _136  and  _137
REMARK   56  A    between atoms: _139  and  _141
REMARK   57  A    between atoms: _141  and  _142
REMARK   58  A    between atoms: _141  and  _144
REMARK   59  A    between atoms: _144  and  _145
REMARK   60  A    between atoms: _151  and  _153
REMARK   61  A    between atoms: _153  and  _154
REMARK   62  A    between atoms: _153  and  _156
REMARK   63  A    between atoms: _156  and  _157
REMARK   64  A    between atoms: _160  and  _162
REMARK   65  A    between atoms: _162  and  _163
REMARK   66  A    between atoms: _162  and  _165
REMARK   67  A    between atoms: _165  and  _166
REMARK   68  A    between atoms: _166  and  _167
REMARK   69  A    between atoms: _167  and  _168
REMARK   70  A    between atoms: _177  and  _179
REMARK   71  A    between atoms: _179  and  _180
REMARK   72  A    between atoms: _179  and  _182
REMARK   73  A    between atoms: _182  and  _183
REMARK   74  A    between atoms: _186  and  _188
REMARK   75  A    between atoms: _188  and  _189
REMARK   76  A    between atoms: _188  and  _191
REMARK   77  A    between atoms: _191  and  _192
REMARK   78  A    between atoms: _195  and  _197
REMARK   79  A    between atoms: _197  and  _198
REMARK   80  A    between atoms: _197  and  _200
REMARK   81  A    between atoms: _200  and  _201
REMARK   82  A    between atoms: _201  and  _202
REMARK   83  A    between atoms: _207  and  _209
REMARK   84  A    between atoms: _209  and  _210
REMARK   85  A    between atoms: _209  and  _212
REMARK   86  A    between atoms: _212  and  _213
REMARK   87  A    between atoms: _213  and  _214
REMARK   88  A    between atoms: _217  and  _219
REMARK   89  A    between atoms: _219  and  _220
REMARK   90  A    between atoms: _219  and  _222
REMARK   91  A    between atoms: _222  and  _223
REMARK   92  A    between atoms: _226  and  _228
REMARK   93  A    between atoms: _228  and  _229
REMARK   94  A    between atoms: _228  and  _231
REMARK   95  A    between atoms: _234  and  _236
REMARK   96  A    between atoms: _236  and  _237
REMARK   97  A    between atoms: _236  and  _239
REMARK   98  A    between atoms: _239  and  _240
REMARK   99  A    between atoms: _240  and  _241
REMARK  100  A    between atoms: _241  and  _242
REMARK  101  A    between atoms: _242  and  _243
REMARK  102  A    between atoms: _247  and  _249
REMARK  103  A    between atoms: _249  and  _250
REMARK  104  A    between atoms: _249  and  _252
REMARK  105  A    between atoms: _252  and  _253
REMARK  106  A    between atoms: _253  and  _254
REMARK  107  A    between atoms: _256  and  _258
REMARK  108  A    between atoms: _258  and  _259
REMARK  109  A    between atoms: _258  and  _261
REMARK  110  A    between atoms: _261  and  _262
REMARK  111  A    between atoms: _262  and  _263
REMARK  112  A    between atoms: _265  and  _267
REMARK  113  A    between atoms: _267  and  _268
REMARK  114  A    between atoms: _267  and  _270
REMARK  115  A    between atoms: _270  and  _271
REMARK  116  A    between atoms: _273  and  _275
REMARK  117  A    between atoms: _275  and  _276
REMARK  118  A    between atoms: _275  and  _278
REMARK  119  A    between atoms: _278  and  _279
REMARK  120  A    between atoms: _279  and  _280
REMARK  121  A    between atoms: _283  and  _285
REMARK  122  A    between atoms: _285  and  _286
REMARK  123  A    between atoms: _285  and  _288
REMARK  124  A    between atoms: _288  and  _289
REMARK  125  A    between atoms: _292  and  _294
REMARK  126  A    between atoms: _294  and  _295
REMARK  127  A    between atoms: _294  and  _297
REMARK  128  A    between atoms: _297  and  _298
REMARK  129  A    between atoms: _301  and  _303
REMARK  130  A    between atoms: _303  and  _304
REMARK  131  A    between atoms: _303  and  _306
REMARK  132  A    between atoms: _306  and  _307
REMARK  133  A    between atoms: _307  and  _308
REMARK  134  A    between atoms: _311  and  _313
REMARK  135  A    between atoms: _313  and  _314
REMARK  136  A    between atoms: _313  and  _316
REMARK  137  A    between atoms: _316  and  _317
REMARK  138  A    between atoms: _320  and  _322
REMARK  139  A    between atoms: _322  and  _323
REMARK  140  A    between atoms: _322  and  _325
REMARK  141  A    between atoms: _325  and  _326
REMARK  142  A    between atoms: _326  and  _327
REMARK  143  A    between atoms: _332  and  _334
REMARK  144  A    between atoms: _334  and  _335
REMARK  145  A    between atoms: _334  and  _337
REMARK  146  A    between atoms: _337  and  _338
REMARK  147  A    between atoms: _341  and  _343
REMARK  148  A    between atoms: _343  and  _344
REMARK  149  A    between atoms: _343  and  _346
REMARK  150  A    between atoms: _346  and  _347
REMARK  151  A    between atoms: _349  and  _351
REMARK  152  A    between atoms: _351  and  _352
REMARK  153  A    between atoms: _355  and  _357
REMARK  154  A    between atoms: _357  and  _358
REMARK  155  A    between atoms: _357  and  _360
REMARK  156  A    between atoms: _360  and  _361
REMARK  157  A    between atoms: _367  and  _369
REMARK  158  A    between atoms: _369  and  _370
REMARK  159  A    between atoms: _369  and  _372
REMARK  160  A    between atoms: _372  and  _373
REMARK  161  A    between atoms: _376  and  _378
REMARK  162  A    between atoms: _378  and  _379
REMARK  163  A    between atoms: _378  and  _381
REMARK  164  A    between atoms: _381  and  _382
REMARK  165  A    between atoms: _387  and  _389
REMARK  166  A    between atoms: _389  and  _390
REMARK  167  A    between atoms: _389  and  _392
REMARK  168  A    between atoms: _395  and  _397
REMARK  169  A    between atoms: _397  and  _398
REMARK  170  A    between atoms: _401  and  _403
REMARK  171  A    between atoms: _403  and  _404
REMARK  172  A    between atoms: _403  and  _406
REMARK  173  A    between atoms: _406  and  _407
REMARK  174  A    between atoms: _413  and  _415
REMARK  175  A    between atoms: _415  and  _416
REMARK  176  A    between atoms: _415  and  _418
REMARK  177  A    between atoms: _418  and  _419
REMARK  178  A    between atoms: _419  and  _420
REMARK  179  A    between atoms: _425  and  _427
REMARK  180  A    between atoms: _427  and  _428
REMARK  181  A    between atoms: _427  and  _430
REMARK  182  A    between atoms: _430  and  _431
REMARK  183  A    between atoms: _431  and  _432
REMARK  184  A    between atoms: _432  and  _433
REMARK  185  A    between atoms: _433  and  _434
REMARK  186  A    between atoms: _438  and  _440
REMARK  187  A    between atoms: _440  and  _441
REMARK  188  A    between atoms: _440  and  _443
REMARK  189  A    between atoms: _446  and  _448
REMARK  190  A    between atoms: _448  and  _449
REMARK  191  A    between atoms: _448  and  _451
REMARK  192  A    between atoms: _454  and  _456
REMARK  193  A    between atoms: _456  and  _457
REMARK  194  A    between atoms: _456  and  _459
REMARK  195  A    between atoms: _459  and  _460
REMARK  196  A    between atoms: _460  and  _461
REMARK  197  A    between atoms: _461  and  _462
REMARK  198  A    between atoms: _471  and  _473
REMARK  199  A    between atoms: _473  and  _474
REMARK  200  A    between atoms: _473  and  _476
REMARK  201  A    between atoms: _476  and  _477
REMARK  202  A    between atoms: _483  and  _485
REMARK  203  A    between atoms: _485  and  _486
REMARK  204  A    between atoms: _485  and  _488
REMARK  205  A    between atoms: _488  and  _489
REMARK  206  A    between atoms: _499  and  _501
REMARK  207  A    between atoms: _501  and  _502
REMARK  208  A    between atoms: _501  and  _504
REMARK  209  A    between atoms: _504  and  _505
REMARK  210  A    between atoms: _508  and  _510
REMARK  211  A    between atoms: _510  and  _511
REMARK  212  A    between atoms: _510  and  _513
REMARK  213  A    between atoms: _513  and  _514
REMARK  214  A    between atoms: _524  and  _526
REMARK  215  A    between atoms: _526  and  _527
REMARK  216  A    between atoms: _526  and  _529
REMARK  217  A    between atoms: _529  and  _530
REMARK  218  A    between atoms: _534  and  _535
REMARK  219  A    between atoms: _540  and  _542
REMARK  220  A    between atoms: _542  and  _543
REMARK  221  A    between atoms: _542  and  _545
REMARK  222  A    between atoms: _545  and  _546
REMARK  223  A    between atoms: _549  and  _551
REMARK  224  A    between atoms: _551  and  _552
REMARK  225  A    between atoms: _551  and  _554
REMARK  226  A    between atoms: _554  and  _555
REMARK  227  A    between atoms: _558  and  _560
REMARK  228  A    between atoms: _560  and  _561
REMARK  229  A    between atoms: _564  and  _566
REMARK  230  A    between atoms: _566  and  _567
REMARK  231  A    between atoms: _566  and  _569
REMARK  232  A    between atoms: _569  and  _570
REMARK  233  A    between atoms: _573  and  _575
REMARK  234  A    between atoms: _575  and  _576
REMARK  235  A    between atoms: _575  and  _578
REMARK  236  A    between atoms: _578  and  _579
REMARK  237  A    between atoms: _579  and  _580
REMARK  238  A    between atoms: _585  and  _587
REMARK  239  A    between atoms: _587  and  _588
REMARK  240  A    between atoms: _590  and  _592
REMARK  241  A    between atoms: _592  and  _593
REMARK  242  A    between atoms: _592  and  _595
REMARK  243  A    between atoms: _595  and  _596
REMARK  244  A    between atoms: _599  and  _601
REMARK  245  A    between atoms: _601  and  _602
REMARK  246  A    between atoms: _601  and  _604
REMARK  247  A    between atoms: _604  and  _605
REMARK  248  A    between atoms: _607  and  _609
REMARK  249  A    between atoms: _609  and  _610
REMARK  250  A    between atoms: _613  and  _615
REMARK  251  A    between atoms: _615  and  _616
REMARK  252  A    between atoms: _615  and  _618
REMARK  253  A    between atoms: _618  and  _619
REMARK  254  A    between atoms: _622  and  _624
REMARK  255  A    between atoms: _624  and  _625
REMARK  256  A    between atoms: _624  and  _627
REMARK  257  A    between atoms: _630  and  _632
REMARK  258  A    between atoms: _632  and  _633
REMARK  259  A    between atoms: _632  and  _635
REMARK  260  A    between atoms: _635  and  _636
REMARK  261  A    between atoms: _636  and  _637
REMARK  262  A    between atoms: _642  and  _644
REMARK  263  A    between atoms: _644  and  _645
REMARK  264  A    between atoms: _644  and  _647
REMARK  265  A    between atoms: _647  and  _648
REMARK  266  A    between atoms: _651  and  _653
REMARK  267  A    between atoms: _653  and  _654
REMARK  268  A    between atoms: _653  and  _656
REMARK  269  A    between atoms: _656  and  _657
REMARK                            x       y       z     vdW  Elec       q    Type
REMARK                         _______ _______ _______ _____ _____    ______ ____
ROOT
ATOM      1  CA  THR A  11      -8.725  -1.095   4.835  0.00  0.00    +0.176 C 
ENDROOT
BRANCH   1   2
ATOM      2  C   THR A  11      -9.415  -2.134   3.965  0.00  0.00    +0.243 C 
ATOM      3  N   ARG A  12     -10.596  -2.574   4.390  0.00  0.00    -0.297 N 
ATOM      4  H   ARG A  12     -10.989  -2.202   5.278  0.00  0.00    +0.150 HD
ATOM      5  O   THR A  11      -8.887  -2.531   2.926  0.00  0.00    -0.273 OA
BRANCH   3   6
ATOM      6  CA  ARG A  12     -11.351  -3.569   3.635  0.00  0.00    +0.149 C 
BRANCH   6   7
ATOM      7  C   ARG A  12     -11.856  -3.025   2.301  0.00  0.00    +0.241 C 
ATOM      8  N   ASP A  13     -12.269  -1.757   2.293  0.00  0.00    -0.297 N 
ATOM      9  H   ASP A  13     -12.258  -1.232   3.191  0.00  0.00    +0.150 HD
ATOM     10  O   ARG A  12     -11.854  -3.752   1.305  0.00  0.00    -0.273 OA
BRANCH   8  11
ATOM     11  CA  ASP A  13     -12.740  -1.057   1.087  0.00  0.00    +0.160 C 
BRANCH  11  12
ATOM     12  C   ASP A  13     -11.677  -1.009  -0.011  0.00  0.00    +0.241 C 
ATOM     13  N   ILE A  14     -10.454  -0.618   0.349  0.00  0.00    -0.297 N 
ATOM     14  H   ILE A  14     -10.280  -0.333   1.334  0.00  0.00    +0.150 HD
ATOM     15  O   ASP A  13     -11.961  -1.301  -1.165  0.00  0.00    -0.273 OA
BRANCH  13  16
ATOM     16  CA  ILE A  14      -9.347  -0.582  -0.618  0.00  0.00    +0.149 C 
BRANCH  16  17
ATOM     17  C   ILE A  14      -9.039  -1.992  -1.120  0.00  0.00    +0.241 C 
ATOM     18  N   GLN A  15      -9.006  -2.969  -0.205  0.00  0.00    -0.297 N 
ATOM     19  H   GLN A  15      -9.134  -2.730   0.799  0.00  0.00    +0.150 HD
ATOM     20  O   ILE A  14      -8.842  -2.187  -2.331  0.00  0.00    -0.273 OA
BRANCH  18  21
ATOM     21  CA  GLN A  15      -8.793  -4.374  -0.588  0.00  0.00    +0.149 C 
BRANCH  21  22
ATOM     22  C   GLN A  15      -9.851  -4.812  -1.616  0.00  0.00    +0.241 C 
ATOM     23  N   GLU A  16     -11.091  -4.362  -1.418  0.00  0.00    -0.297 N 
ATOM     24  H   GLU A  16     -11.280  -3.767  -0.586  0.00  0.00    +0.150 HD
ATOM     25  O   GLN A  15      -9.543  -5.530  -2.568  0.00  0.00    -0.273 OA
BRANCH  23  26
ATOM     26  CA  GLU A  16     -12.194  -4.673  -2.325  0.00  0.00    +0.149 C 
BRANCH  26  27
ATOM     27  C   GLU A  16     -12.042  -3.915  -3.651  0.00  0.00    +0.241 C 
ATOM     28  N   LEU A  17     -11.633  -2.648  -3.580  0.00  0.00    -0.297 N 
ATOM     29  H   LEU A  17     -11.447  -2.231  -2.646  0.00  0.00    +0.150 HD
ATOM     30  O   GLU A  16     -12.284  -4.472  -4.705  0.00  0.00    -0.273 OA
BRANCH  28  31
ATOM     31  CA  LEU A  17     -11.437  -1.825  -4.774  0.00  0.00    +0.149 C 
BRANCH  31  32
ATOM     32  C   LEU A  17     -10.381  -2.460  -5.690  0.00  0.00    +0.241 C 
ATOM     33  N   VAL A  18      -9.284  -2.953  -5.110  0.00  0.00    -0.297 N 
ATOM     34  H   VAL A  18      -9.149  -2.804  -4.090  0.00  0.00    +0.150 HD
ATOM     35  O   LEU A  17     -10.581  -2.514  -6.906  0.00  0.00    -0.273 OA
BRANCH  33  36
ATOM     36  CA  VAL A  18      -8.253  -3.702  -5.861  0.00  0.00    +0.149 C 
BRANCH  36  37
ATOM     37  C   VAL A  18      -8.800  -4.985  -6.509  0.00  0.00    +0.241 C 
ATOM     38  N   LYS A  19      -9.491  -5.834  -5.741  0.00  0.00    -0.297 N 
ATOM     39  H   LYS A  19      -9.592  -5.624  -4.727  0.00  0.00    +0.150 HD
ATOM     40  O   VAL A  18      -8.590  -5.201  -7.695  0.00  0.00    -0.273 OA
BRANCH  38  41
ATOM     41  CA  LYS A  19     -10.115  -7.057  -6.279  0.00  0.00    +0.149 C 
BRANCH  41  42
ATOM     42  C   LYS A  19     -10.982  -6.746  -7.493  0.00  0.00    +0.241 C 
ATOM     43  N   MET A  20     -11.762  -5.679  -7.370  0.00  0.00    -0.297 N 
ATOM     44  H   MET A  20     -11.725  -5.150  -6.475  0.00  0.00    +0.150 HD
ATOM     45  O   LYS A  19     -10.946  -7.452  -8.505  0.00  0.00    -0.273 OA
BRANCH  43  46
ATOM     46  CA  MET A  20     -12.668  -5.200  -8.408  0.00  0.00    +0.149 C 
BRANCH  46  47
ATOM     47  C   MET A  20     -11.934  -4.696  -9.646  0.00  0.00    +0.241 C 
ATOM     48  N   MET A  21     -10.916  -3.867  -9.438  0.00  0.00    -0.297 N 
ATOM     49  H   MET A  21     -10.610  -3.676  -8.463  0.00  0.00    +0.150 HD
ATOM     50  O   MET A  20     -12.282  -5.052 -10.761  0.00  0.00    -0.273 OA
BRANCH  48  51
ATOM     51  CA  MET A  21     -10.214  -3.215 -10.546  0.00  0.00    +0.149 C 
BRANCH  51  52
ATOM     52  C   MET A  21      -9.034  -3.996 -11.150  0.00  0.00    +0.241 C 
ATOM     53  N   SER A  22      -8.472  -4.918 -10.367  0.00  0.00    -0.296 N 
ATOM     54  H   SER A  22      -8.850  -5.042  -9.406  0.00  0.00    +0.150 HD
ATOM     55  O   MET A  21      -8.655  -3.762 -12.304  0.00  0.00    -0.273 OA
BRANCH  53  56
ATOM     56  CA  SER A  22      -7.351  -5.768 -10.785  0.00  0.00    +0.166 C 
BRANCH  56  57
ATOM     57  C   SER A  22      -7.657  -6.372 -12.167  0.00  0.00    +0.229 C 
ATOM     58  O   SER A  22      -8.816  -6.693 -12.452  0.00  0.00    -0.286 OA
ENDBRANCH  56  57
BRANCH  56  59
ATOM     59  CB  SER A  22      -7.140  -6.867  -9.735  0.00  0.00    +0.165 C 
BRANCH  59  60
ATOM     60  OG  SER A  22      -5.803  -7.336  -9.690  0.00  0.00    -0.380 OA
ATOM     61  H   SER A  22      -5.725  -8.040  -8.999  0.00  0.00    +0.211 HD
ENDBRANCH  59  60
ENDBRANCH  56  59
ENDBRANCH  53  56
ENDBRANCH  51  52
BRANCH  51  62
ATOM     62  CB  MET A  21      -9.839  -1.784 -10.151  0.00  0.00    +0.041 C 
BRANCH  62  63
ATOM     63  CG  MET A  21     -11.087  -0.934  -9.963  0.00  0.00    +0.060 C 
BRANCH  63  64
ATOM     64  SD  MET A  21     -12.014  -0.971 -11.505  0.00  0.00    -0.139 S 
ATOM     65  CE  MET A  21     -13.700  -0.810 -10.993  0.00  0.00    +0.069 C 
ENDBRANCH  63  64
ENDBRANCH  62  63
ENDBRANCH  51  62
ENDBRANCH  48  51
ENDBRANCH  46  47
BRANCH  46  66
ATOM     66  CB  MET A  20     -13.549  -4.078  -7.833  0.00  0.00    +0.041 C 
BRANCH  66  67
ATOM     67  CG  MET A  20     -14.617  -3.541  -8.776  0.00  0.00    +0.060 C 
BRANCH  67  68
ATOM     68  SD  MET A  20     -15.598  -2.216  -8.023  0.00  0.00    -0.139 S 
ATOM     69  CE  MET A  20     -14.346  -1.015  -7.799  0.00  0.00    +0.069 C 
ENDBRANCH  67  68
ENDBRANCH  66  67
ENDBRANCH  46  66
ENDBRANCH  43  46
ENDBRANCH  41  42
BRANCH  41  70
ATOM     70  CB  LYS A  19     -11.006  -7.726  -5.226  0.00  0.00    +0.029 C 
BRANCH  70  71
ATOM     71  CG  LYS A  19     -10.329  -8.632  -4.204  0.00  0.00    +0.000 C 
BRANCH  71  72
ATOM     72  CD  LYS A  19     -11.308  -8.888  -3.067  0.00  0.00    -0.024 C 
BRANCH  72  73
ATOM     73  CE  LYS A  19     -10.672  -9.615  -1.907  0.00  0.00    -0.086 C 
BRANCH  73  74
ATOM     74  NZ  LYS A  19     -11.263  -9.123  -0.624  0.00  0.00    +0.380 N 
ATOM     75  HZ1 LYS A  19     -10.824  -9.625   0.174  0.00  0.00    -0.089 HD
ATOM     76  HZ2 LYS A  19     -11.087  -8.102  -0.532  0.00  0.00    -0.089 HD
ATOM     77  HZ3 LYS A  19     -12.288  -9.301  -0.625  0.00  0.00    -0.089 HD
ENDBRANCH  73  74
ENDBRANCH  72  73
ENDBRANCH  71  72
ENDBRANCH  70  71
ENDBRANCH  41  70
ENDBRANCH  38  41
ENDBRANCH  36  37
BRANCH  36  78
ATOM     78  CB  VAL A  18      -7.017  -4.073  -4.977  0.00  0.00    +0.027 C 
ATOM     79  CG2 VAL A  18      -6.398  -2.844  -4.368  0.00  0.00    +0.002 C 
ATOM     80  CG1 VAL A  18      -5.979  -4.832  -5.799  0.00  0.00    +0.002 C 
ENDBRANCH  36  78
ENDBRANCH  33  36
ENDBRANCH  31  32
BRANCH  31  81
ATOM     81  CB  LEU A  17     -11.182  -0.331  -4.429  0.00  0.00    +0.029 C 
BRANCH  81  82
ATOM     82  CG  LEU A  17     -12.354   0.399  -3.708  0.00  0.00    +0.002 C 
ATOM     83  CD2 LEU A  17     -12.102   1.905  -3.435  0.00  0.00    +0.000 C 
ATOM     84  CD1 LEU A  17     -13.707   0.217  -4.422  0.00  0.00    +0.000 C 
ENDBRANCH  81  82
ENDBRANCH  31  81
ENDBRANCH  28  31
ENDBRANCH  26  27
BRANCH  26  85
ATOM     85  CB  GLU A  16     -13.532  -4.338  -1.650  0.00  0.00    +0.041 C 
BRANCH  85  86
ATOM     86  CG  GLU A  16     -14.795  -4.448  -2.537  0.00  0.00    +0.116 C 
BRANCH  86  87
ATOM     87  CD  GLU A  16     -15.031  -5.826  -3.139  0.00  0.00    +0.365 C 
ATOM     88  OE2 GLU A  16     -14.583  -6.854  -2.553  0.00  0.00    -0.246 OA
ATOM     89  OE1 GLU A  16     -15.683  -5.877  -4.209  0.00  0.00    -0.246 OA
ENDBRANCH  86  87
ENDBRANCH  85  86
ENDBRANCH  26  85
ENDBRANCH  23  26
ENDBRANCH  21  22
BRANCH  21  90
ATOM     90  CB  GLN A  15      -8.788  -5.294   0.645  0.00  0.00    +0.039 C 
BRANCH  90  91
ATOM     91  CG  GLN A  15      -7.480  -5.248   1.452  0.00  0.00    +0.087 C 
BRANCH  91  92
ATOM     92  CD  GLN A  15      -7.593  -5.785   2.883  0.00  0.00    +0.219 C 
ATOM     93  NE2 GLN A  15      -6.492  -5.700   3.629  0.00  0.00    -0.329 N 
ATOM     94 HE21 GLN A  15      -6.501  -6.044   4.611  0.00  0.00    +0.145 HD
ATOM     95 HE22 GLN A  15      -5.624  -5.290   3.230  0.00  0.00    +0.145 HD
ATOM     96  OE1 GLN A  15      -8.645  -6.263   3.313  0.00  0.00    -0.275 OA
ENDBRANCH  91  92
ENDBRANCH  90  91
ENDBRANCH  21  90
ENDBRANCH  18  21
ENDBRANCH  16  17
BRANCH  16  97
ATOM     97  CB  ILE A  14      -8.060   0.095  -0.048  0.00  0.00    +0.027 C 
ATOM     98  CG2 ILE A  14      -6.894  -0.023  -1.071  0.00  0.00    +0.002 C 
BRANCH  97  99
ATOM     99  CG1 ILE A  14      -8.331   1.539   0.394  0.00  0.00    +0.002 C 
ATOM    100  CD1 ILE A  14      -8.905   2.517  -0.703  0.00  0.00    +0.000 C 
ENDBRANCH  97  99
ENDBRANCH  16  97
ENDBRANCH  13  16
ENDBRANCH  11  12
BRANCH  11 101
ATOM    101  CB  ASP A  13     -13.116   0.398   1.418  0.00  0.00    +0.143 C 
BRANCH 101 102
ATOM    102  CG  ASP A  13     -14.444   0.535   2.166  0.00  0.00    +0.367 C 
ATOM    103  OD2 ASP A  13     -15.098  -0.478   2.492  0.00  0.00    -0.246 OA
ATOM    104  OD1 ASP A  13     -14.834   1.700   2.430  0.00  0.00    -0.246 OA
ENDBRANCH 101 102
ENDBRANCH  11 101
ENDBRANCH   8  11
ENDBRANCH   6   7
BRANCH   6 105
ATOM    105  CB  ARG A  12     -12.483  -4.156   4.479  0.00  0.00    +0.033 C 
BRANCH 105 106
ATOM    106  CG  ARG A  12     -11.968  -4.903   5.701  0.00  0.00    +0.045 C 
BRANCH 106 107
ATOM    107  CD  ARG A  12     -13.074  -5.664   6.467  0.00  0.00    +0.174 C 
BRANCH 107 108
ATOM    108  NE  ARG A  12     -13.919  -4.739   7.231  0.00  0.00    -0.265 N 
ATOM    109  HE  ARG A  12     -13.536  -4.367   8.124  0.00  0.00    +0.259 HD
ATOM    110  CZ  ARG A  12     -15.138  -4.337   6.873  0.00  0.00    +0.342 C 
ATOM    111  NH2 ARG A  12     -15.800  -3.484   7.659  0.00  0.00    -0.292 N 
ATOM    112 HH21 ARG A  12     -15.363  -3.142   8.539  0.00  0.00    +0.255 HD
ATOM    113 HH22 ARG A  12     -16.752  -3.162   7.391  0.00  0.00    +0.255 HD
ATOM    114  NH1 ARG A  12     -15.694  -4.780   5.745  0.00  0.00    -0.292 N 
ATOM    115 HH11 ARG A  12     -16.646  -4.460   5.474  0.00  0.00    +0.255 HD
ATOM    116 HH12 ARG A  12     -15.176  -5.445   5.136  0.00  0.00    +0.255 HD
ENDBRANCH 107 108
ENDBRANCH 106 107
ENDBRANCH 105 106
ENDBRANCH   6 105
ENDBRANCH   3   6
ENDBRANCH   1   2
BRANCH   1 118
ATOM    117  C   PHE A  10     -10.256   0.752   4.326  0.00  0.00    +0.241 C 
ATOM    118  N   THR A  11      -9.612   0.004   5.212  0.00  0.00    -0.295 N 
ATOM    119  H   THR A  11      -9.744   0.209   6.223  0.00  0.00    +0.150 HD
ATOM    120  O   PHE A  10     -10.150   0.594   3.114  0.00  0.00    -0.273 OA
BRANCH 117 121
ATOM    121  CA  PHE A  10     -11.148   1.869   4.905  0.00  0.00    +0.153 C 
BRANCH 121 123
ATOM    122  C   SER A   9     -12.782   0.295   5.771  0.00  0.00    +0.243 C 
ATOM    123  N   PHE A  10     -12.006   1.360   5.945  0.00  0.00    -0.297 N 
ATOM    124  H   PHE A  10     -12.018   1.844   6.866  0.00  0.00    +0.150 HD
ATOM    125  O   SER A   9     -12.882  -0.310   4.695  0.00  0.00    -0.273 OA
BRANCH 122 126
ATOM    126  CA  SER A   9     -13.560  -0.155   6.987  0.00  0.00    +0.178 C 
BRANCH 126 128
ATOM    127  C   VAL A   8     -11.718  -1.111   8.284  0.00  0.00    +0.241 C 
ATOM    128  N   SER A   9     -12.722  -0.243   8.181  0.00  0.00    -0.295 N 
ATOM    129  H   SER A   9     -12.917   0.395   8.979  0.00  0.00    +0.150 HD
ATOM    130  O   VAL A   8     -11.403  -1.881   7.371  0.00  0.00    -0.273 OA
BRANCH 127 131
ATOM    131  CA  VAL A   8     -10.941  -1.097   9.616  0.00  0.00    +0.149 C 
BRANCH 131 133
ATOM    132  C   ARG A   7      -9.897   1.125   9.407  0.00  0.00    +0.241 C 
ATOM    133  N   VAL A   8     -10.669   0.293  10.082  0.00  0.00    -0.297 N 
ATOM    134  H   VAL A   8     -11.102   0.619  10.970  0.00  0.00    +0.150 HD
ATOM    135  O   ARG A   7      -9.313   0.794   8.375  0.00  0.00    -0.273 OA
BRANCH 132 136
ATOM    136  CA  ARG A   7      -9.759   2.553   9.960  0.00  0.00    +0.149 C 
BRANCH 136 138
ATOM    137  C   TYR A   6     -12.038   3.230   9.418  0.00  0.00    +0.241 C 
ATOM    138  N   ARG A   7     -11.080   3.088  10.331  0.00  0.00    -0.297 N 
ATOM    139  H   ARG A   7     -11.266   3.358  11.318  0.00  0.00    +0.150 HD
ATOM    140  O   TYR A   6     -11.895   2.861   8.257  0.00  0.00    -0.273 OA
BRANCH 137 141
ATOM    141  CA  TYR A   6     -13.351   3.885   9.867  0.00  0.00    +0.153 C 
BRANCH 141 143
ATOM    142  C   VAL A   5     -14.043   2.127  11.395  0.00  0.00    +0.241 C 
ATOM    143  N   TYR A   6     -13.829   3.405  11.144  0.00  0.00    -0.297 N 
ATOM    144  H   TYR A   6     -14.012   4.097  11.898  0.00  0.00    +0.150 HD
ATOM    145  O   VAL A   5     -13.865   1.253  10.552  0.00  0.00    -0.273 OA
BRANCH 142 146
ATOM    146  CA  VAL A   5     -14.520   1.787  12.815  0.00  0.00    +0.149 C 
BRANCH 146 148
ATOM    147  C   GLN A   4     -12.404   2.298  13.942  0.00  0.00    +0.241 C 
ATOM    148  N   VAL A   5     -13.715   2.509  13.820  0.00  0.00    -0.297 N 
ATOM    149  H   VAL A   5     -14.180   3.197  14.446  0.00  0.00    +0.150 HD
ATOM    150  O   GLN A   4     -11.799   1.444  13.287  0.00  0.00    -0.273 OA
BRANCH 147 151
ATOM    151  CA  GLN A   4     -11.655   3.171  14.952  0.00  0.00    +0.149 C 
BRANCH 151 153
ATOM    152  C   PHE A   3     -11.740   5.234  13.673  0.00  0.00    +0.241 C 
ATOM    153  N   GLN A   4     -11.992   4.584  14.802  0.00  0.00    -0.297 N 
ATOM    154  H   GLN A   4     -12.437   5.090  15.594  0.00  0.00    +0.150 HD
ATOM    155  O   PHE A   3     -11.174   4.712  12.719  0.00  0.00    -0.273 OA
BRANCH 152 156
ATOM    156  CA  PHE A   3     -12.203   6.683  13.596  0.00  0.00    +0.153 C 
BRANCH 156 158
ATOM    157  C   MET A   2     -14.596   6.300  13.855  0.00  0.00    +0.241 C 
ATOM    158  N   PHE A   3     -13.480   6.866  14.311  0.00  0.00    -0.297 N 
ATOM    159  H   PHE A   3     -13.509   7.441  15.177  0.00  0.00    +0.150 HD
ATOM    160  O   MET A   2     -14.629   5.615  12.824  0.00  0.00    -0.273 OA
BRANCH 157 161
ATOM    161  CA  MET A   2     -15.861   6.536  14.678  0.00  0.00    +0.149 C 
BRANCH 161 163
ATOM    162  C   HIS A   1     -15.125   5.207  16.579  0.00  0.00    +0.239 C 
ATOM    163  N   MET A   2     -15.564   6.369  16.086  0.00  0.00    -0.297 N 
ATOM    164  H   MET A   2     -15.696   7.175  16.730  0.00  0.00    +0.150 HD
ATOM    165  O   HIS A   1     -14.937   4.202  15.878  0.00  0.00    -0.274 OA
BRANCH 162 166
ATOM    166  CA  HIS A   1     -14.845   5.170  18.087  0.00  0.00    +0.151 C 
BRANCH 166 167
ATOM    167  N   HIS A   1     -14.193   6.411  18.522  0.00  0.00    -0.238 NA
ATOM    168  H   HIS A   1     -14.635   7.008  19.249  0.00  0.00    +0.142 HD
ENDBRANCH 166 167
BRANCH 166 169
ATOM    169  CB  HIS A   1     -16.134   4.895  18.865  0.00  0.00    +0.074 C 
BRANCH 169 170
ATOM    170  CG  HIS A   1     -16.840   3.650  18.418  0.00  0.00    +0.082 A 
ATOM    171  CD2 HIS A   1     -16.626   2.347  18.714  0.00  0.00    +0.115 A 
ATOM    172  NE2 HIS A   1     -17.568   1.612  18.026  0.00  0.00    -0.221 NA
ATOM    173  CE1 HIS A   1     -18.329   2.436  17.328  0.00  0.00    +0.199 A 
ATOM    174  ND1 HIS A   1     -17.908   3.672  17.543  0.00  0.00    -0.227 NA
ENDBRANCH 169 170
ENDBRANCH 166 169
ENDBRANCH 162 166
ENDBRANCH 161 163
BRANCH 161 175
ATOM    175  CB  MET A   2     -16.386   7.946  14.432  0.00  0.00    +0.041 C 
BRANCH 175 176
ATOM    176  CG  MET A   2     -16.711   8.267  12.970  0.00  0.00    +0.060 C 
BRANCH 176 177
ATOM    177  SD  MET A   2     -16.861  10.054  12.731  0.00  0.00    -0.139 S 
ATOM    178  CE  MET A   2     -18.167  10.424  13.910  0.00  0.00    +0.069 C 
ENDBRANCH 176 177
ENDBRANCH 175 176
ENDBRANCH 161 175
ENDBRANCH 157 161
ENDBRANCH 156 158
BRANCH 156 179
ATOM    179  CB  PHE A   3     -11.154   7.702  14.078  0.00  0.00    +0.055 C 
BRANCH 179 180
ATOM    180  CG  PHE A   3     -11.362   9.074  13.474  0.00  0.00    -0.020 A 
ATOM    181  CD2 PHE A   3     -11.752  10.155  14.254  0.00  0.00    -0.004 A 
ATOM    182  CE2 PHE A   3     -11.946  11.417  13.683  0.00  0.00    -0.000 A 
ATOM    183  CZ  PHE A   3     -11.752  11.618  12.293  0.00  0.00    -0.000 A 
ATOM    184  CE1 PHE A   3     -11.361  10.554  11.502  0.00  0.00    -0.000 A 
ATOM    185  CD1 PHE A   3     -11.168   9.272  12.110  0.00  0.00    -0.004 A 
ENDBRANCH 179 180
ENDBRANCH 156 179
ENDBRANCH 152 156
ENDBRANCH 151 153
BRANCH 151 186
ATOM    186  CB  GLN A   4     -11.894   2.693  16.393  0.00  0.00    +0.039 C 
BRANCH 186 187
ATOM    187  CG  GLN A   4     -10.844   3.221  17.368  0.00  0.00    +0.087 C 
BRANCH 187 188
ATOM    188  CD  GLN A   4     -11.215   3.005  18.808  0.00  0.00    +0.219 C 
ATOM    189  NE2 GLN A   4     -10.323   3.359  19.702  0.00  0.00    -0.329 N 
ATOM    190 HE21 GLN A   4     -10.525   3.236  20.715  0.00  0.00    +0.145 HD
ATOM    191 HE22 GLN A   4      -9.414   3.763  19.398  0.00  0.00    +0.145 HD
ATOM    192  OE1 GLN A   4     -12.289   2.530  19.113  0.00  0.00    -0.275 OA
ENDBRANCH 187 188
ENDBRANCH 186 187
ENDBRANCH 151 186
ENDBRANCH 147 151
ENDBRANCH 146 148
BRANCH 146 193
ATOM    193  CB  VAL A   5     -16.027   2.083  13.011  0.00  0.00    +0.027 C 
ATOM    194  CG2 VAL A   5     -16.473   1.549  14.369  0.00  0.00    +0.002 C 
ATOM    195  CG1 VAL A   5     -16.879   1.433  11.924  0.00  0.00    +0.002 C 
ENDBRANCH 146 193
ENDBRANCH 142 146
ENDBRANCH 141 143
BRANCH 141 196
ATOM    196  CB  TYR A   6     -13.149   5.409   9.916  0.00  0.00    +0.055 C 
BRANCH 196 197
ATOM    197  CG  TYR A   6     -12.271   5.899   8.785  0.00  0.00    -0.020 A 
ATOM    198  CD2 TYR A   6     -10.985   6.369   9.044  0.00  0.00    -0.001 A 
ATOM    199  CE2 TYR A   6     -10.171   6.805   8.036  0.00  0.00    +0.036 A 
ATOM    200  CZ  TYR A   6     -10.628   6.781   6.722  0.00  0.00    +0.134 A 
ATOM    201  CE1 TYR A   6     -11.886   6.328   6.410  0.00  0.00    +0.036 A 
ATOM    202  CD1 TYR A   6     -12.715   5.876   7.460  0.00  0.00    -0.001 A 
BRANCH 200 203
ATOM    203  OH  TYR A   6      -9.791   7.231   5.746  0.00  0.00    -0.506 OA
ATOM    204  HH  TYR A   6      -8.966   6.684   5.742  0.00  0.00    +0.292 HD
ENDBRANCH 200 203
ENDBRANCH 196 197
ENDBRANCH 141 196
ENDBRANCH 137 141
ENDBRANCH 136 138
BRANCH 136 205
ATOM    205  CB  ARG A   7      -8.736   2.657  11.127  0.00  0.00    +0.033 C 
BRANCH 205 206
ATOM    206  CG  ARG A   7      -7.331   2.134  10.750  0.00  0.00    +0.045 C 
BRANCH 206 207
ATOM    207  CD  ARG A   7      -6.285   2.352  11.855  0.00  0.00    +0.174 C 
BRANCH 207 208
ATOM    208  NE  ARG A   7      -6.442   1.398  12.954  0.00  0.00    -0.265 N 
ATOM    209  CZ  ARG A   7      -5.645   1.350  14.025  0.00  0.00    +0.342 C 
ATOM    210  NH2 ARG A   7      -5.857   0.445  14.984  0.00  0.00    -0.292 N 
ATOM    211 HH21 ARG A   7      -5.233   0.413  15.815  0.00  0.00    +0.255 HD
ATOM    212 HH22 ARG A   7      -6.646  -0.227  14.899  0.00  0.00    +0.255 HD
ATOM    213  NH1 ARG A   7      -4.639   2.209  14.117  0.00  0.00    -0.292 N 
ATOM    214 HH11 ARG A   7      -4.009   2.185  14.944  0.00  0.00    +0.255 HD
ATOM    215 HH12 ARG A   7      -4.480   2.906  13.362  0.00  0.00    +0.255 HD
ATOM    216  HE  ARG A   7      -7.224   0.714  12.897  0.00  0.00    +0.259 HD
ENDBRANCH 207 208
ENDBRANCH 206 207
ENDBRANCH 205 206
ENDBRANCH 136 205
ENDBRANCH 132 136
ENDBRANCH 131 133
BRANCH 131 217
ATOM    217  CB  VAL A   8     -11.651  -1.935  10.699  0.00  0.00    +0.027 C 
ATOM    218  CG2 VAL A   8     -10.763  -2.014  11.947  0.00  0.00    +0.002 C 
ATOM    219  CG1 VAL A   8     -11.948  -3.346  10.203  0.00  0.00    +0.002 C 
ENDBRANCH 131 217
ENDBRANCH 127 131
ENDBRANCH 126 128
BRANCH 126 220
ATOM    220  CB  SER A   9     -14.772   0.748   7.258  0.00  0.00    +0.166 C 
BRANCH 220 221
ATOM    221  OG  SER A   9     -15.654   0.052   8.140  0.00  0.00    -0.380 OA
ATOM    222  H   SER A   9     -15.181  -0.149   8.986  0.00  0.00    +0.211 HD
ENDBRANCH 220 221
ENDBRANCH 126 220
ENDBRANCH 122 126
ENDBRANCH 121 123
BRANCH 121 223
ATOM    223  CB  PHE A  10     -10.256   2.991   5.474  0.00  0.00    +0.055 C 
BRANCH 223 224
ATOM    224  CG  PHE A  10      -9.225   3.495   4.481  0.00  0.00    -0.020 A 
ATOM    225  CD2 PHE A  10      -7.916   3.028   4.529  0.00  0.00    -0.004 A 
ATOM    226  CE2 PHE A  10      -6.966   3.477   3.626  0.00  0.00    -0.000 A 
ATOM    227  CZ  PHE A  10      -7.329   4.388   2.667  0.00  0.00    -0.000 A 
ATOM    228  CE1 PHE A  10      -8.630   4.864   2.607  0.00  0.00    -0.000 A 
ATOM    229  CD1 PHE A  10      -9.571   4.414   3.511  0.00  0.00    -0.004 A 
ENDBRANCH 223 224
ENDBRANCH 121 223
ENDBRANCH 117 121
ENDBRANCH   1 118
BRANCH   1 230
ATOM    230  CB  THR A  11      -8.093  -1.745   6.097  0.00  0.00    +0.137 C 
ATOM    231  CG2 THR A  11      -7.218  -2.915   5.728  0.00  0.00    +0.034 C 
BRANCH 230 232
ATOM    232  OG1 THR A  11      -7.294  -0.759   6.775  0.00  0.00    -0.382 OA
ATOM    233  HG1 THR A  11      -6.580  -0.440   6.168  0.00  0.00    +0.210 HD
ENDBRANCH 230 232
ENDBRANCH   1 230
TORSDOF 99
REMARK  Name = ../refined-set-2016/2q7y/2q7y_pocket.pdb
REMARK  269 active torsions:
REMARK  status: ('A' for Active; 'I' for Inactive)
REMARK    1  A    between atoms: _1  and  _3
REMARK    2  A    between atoms: _3  and  _4
REMARK    3  A    between atoms: _3  and  _6
REMARK    4  A    between atoms: _8  and  _10
REMARK    5  A    between atoms: _10  and  _11
REMARK    6  A    between atoms: _10  and  _13
REMARK    7  A    between atoms: _13  and  _14
REMARK    8  A    between atoms: _14  and  _15
REMARK    9  A    between atoms: _20  and  _22
REMARK   10  A    between atoms: _22  and  _23
REMARK   11  A    between atoms: _22  and  _25
REMARK   12  A    between atoms: _25  and  _26
REMARK   13  A    between atoms: _32  and  _34
REMARK   14  A    between atoms: _34  and  _35
REMARK   15  A    between atoms: _34  and  _37
REMARK   16  A    between atoms: _37  and  _38
REMARK   17  A    between atoms: _40  and  _42
REMARK   18  A    between atoms: _42  and  _43
REMARK   19  A    between atoms: _42  and  _45
REMARK   20  A    between atoms: _45  and  _46
REMARK   21  A    between atoms: _51  and  _53
REMARK   22  A    between atoms: _53  and  _54
REMARK   23  A    between atoms: _53  and  _56
REMARK   24  A    between atoms: _56  and  _57
REMARK   25  A    between atoms: _57  and  _58
REMARK   26  A    between atoms: _60  and  _62
REMARK   27  A    between atoms: _62  and  _63
REMARK   28  A    between atoms: _62  and  _65
REMARK   29  A    between atoms: _65  and  _66
REMARK   30  A    between atoms: _72  and  _74
REMARK   31  A    between atoms: _74  and  _75
REMARK   32  A    between atoms: _74  and  _77
REMARK   33  A    between atoms: _77  and  _78
REMARK   34  A    between atoms: _78  and  _79
REMARK   35  A    between atoms: _84  and  _86
REMARK   36  A    between atoms: _86  and  _87
REMARK   37  A    between atoms: _86  and  _89
REMARK   38  A    between atoms: _92  and  _94
REMARK   39  A    between atoms: _94  and  _95
REMARK   40  A    between atoms: _94  and  _97
REMARK   41  A    between atoms: _97  and  _98
REMARK   42  A    between atoms: _103  and  _104
REMARK   43  A    between atoms: _106  and  _108
REMARK   44  A    between atoms: _108  and  _109
REMARK   45  A    between atoms: _108  and  _111
REMARK   46  A    between atoms: _111  and  _112
REMARK   47  A    between atoms: _112  and  _113
REMARK   48  A    between atoms: _113  and  _114
REMARK   49  A    between atoms: _123  and  _125
REMARK   50  A    between atoms: _125  and  _126
REMARK   51  A    between atoms: _125  and  _128
REMARK   52  A    between atoms: _131  and  _133
REMARK   53  A    between atoms: _133  and  _134
REMARK   54  A    between atoms: _133  and  _136
REMARK   55  A    between atoms: _136  and  _137
REMARK   56  A    between atoms: _139  and  _141
REMARK   57  A    between atoms: _141  and  _142
REMARK   58  A    between atoms: _141  and  _144
REMARK   59  A    between atoms: _144  and  _145
REMARK   60  A    between atoms: _151  and  _153
REMARK   61  A    between atoms: _153  and  _154
REMARK   62  A    between atoms: _153  and  _156
REMARK   63  A    between atoms: _156  and  _157
REMARK   64  A    between atoms: _160  and  _162
REMARK   65  A    between atoms: _162  and  _163
REMARK   66  A    between atoms: _162  and  _165
REMARK   67  A    between atoms: _165  and  _166
REMARK   68  A    between atoms: _166  and  _167
REMARK   69  A    between atoms: _167  and  _168
REMARK   70  A    between atoms: _177  and  _179
REMARK   71  A    between atoms: _179  and  _180
REMARK   72  A    between atoms: _179  and  _182
REMARK   73  A    between atoms: _182  and  _183
REMARK   74  A    between atoms: _186  and  _188
REMARK   75  A    between atoms: _188  and  _189
REMARK   76  A    between atoms: _188  and  _191
REMARK   77  A    between atoms: _191  and  _192
REMARK   78  A    between atoms: _195  and  _197
REMARK   79  A    between atoms: _197  and  _198
REMARK   80  A    between atoms: _197  and  _200
REMARK   81  A    between atoms: _200  and  _201
REMARK   82  A    between atoms: _201  and  _202
REMARK   83  A    between atoms: _207  and  _209
REMARK   84  A    between atoms: _209  and  _210
REMARK   85  A    between atoms: _209  and  _212
REMARK   86  A    between atoms: _212  and  _213
REMARK   87  A    between atoms: _213  and  _214
REMARK   88  A    between atoms: _217  and  _219
REMARK   89  A    between atoms: _219  and  _220
REMARK   90  A    between atoms: _219  and  _222
REMARK   91  A    between atoms: _222  and  _223
REMARK   92  A    between atoms: _226  and  _228
REMARK   93  A    between atoms: _228  and  _229
REMARK   94  A    between atoms: _228  and  _231
REMARK   95  A    between atoms: _234  and  _236
REMARK   96  A    between atoms: _236  and  _237
REMARK   97  A    between atoms: _236  and  _239
REMARK   98  A    between atoms: _239  and  _240
REMARK   99  A    between atoms: _240  and  _241
REMARK  100  A    between atoms: _241  and  _242
REMARK  101  A    between atoms: _242  and  _243
REMARK  102  A    between atoms: _247  and  _249
REMARK  103  A    between atoms: _249  and  _250
REMARK  104  A    between atoms: _249  and  _252
REMARK  105  A    between atoms: _252  and  _253
REMARK  106  A    between atoms: _253  and  _254
REMARK  107  A    between atoms: _256  and  _258
REMARK  108  A    between atoms: _258  and  _259
REMARK  109  A    between atoms: _258  and  _261
REMARK  110  A    between atoms: _261  and  _262
REMARK  111  A    between atoms: _262  and  _263
REMARK  112  A    between atoms: _265  and  _267
REMARK  113  A    between atoms: _267  and  _268
REMARK  114  A    between atoms: _267  and  _270
REMARK  115  A    between atoms: _270  and  _271
REMARK  116  A    between atoms: _273  and  _275
REMARK  117  A    between atoms: _275  and  _276
REMARK  118  A    between atoms: _275  and  _278
REMARK  119  A    between atoms: _278  and  _279
REMARK  120  A    between atoms: _279  and  _280
REMARK  121  A    between atoms: _283  and  _285
REMARK  122  A    between atoms: _285  and  _286
REMARK  123  A    between atoms: _285  and  _288
REMARK  124  A    between atoms: _288  and  _289
REMARK  125  A    between atoms: _292  and  _294
REMARK  126  A    between atoms: _294  and  _295
REMARK  127  A    between atoms: _294  and  _297
REMARK  128  A    between atoms: _297  and  _298
REMARK  129  A    between atoms: _301  and  _303
REMARK  130  A    between atoms: _303  and  _304
REMARK  131  A    between atoms: _303  and  _306
REMARK  132  A    between atoms: _306  and  _307
REMARK  133  A    between atoms: _307  and  _308
REMARK  134  A    between atoms: _311  and  _313
REMARK  135  A    between atoms: _313  and  _314
REMARK  136  A    between atoms: _313  and  _316
REMARK  137  A    between atoms: _316  and  _317
REMARK  138  A    between atoms: _320  and  _322
REMARK  139  A    between atoms: _322  and  _323
REMARK  140  A    between atoms: _322  and  _325
REMARK  141  A    between atoms: _325  and  _326
REMARK  142  A    between atoms: _326  and  _327
REMARK  143  A    between atoms: _332  and  _334
REMARK  144  A    between atoms: _334  and  _335
REMARK  145  A    between atoms: _334  and  _337
REMARK  146  A    between atoms: _337  and  _338
REMARK  147  A    between atoms: _341  and  _343
REMARK  148  A    between atoms: _343  and  _344
REMARK  149  A    between atoms: _343  and  _346
REMARK  150  A    between atoms: _346  and  _347
REMARK  151  A    between atoms: _349  and  _351
REMARK  152  A    between atoms: _351  and  _352
REMARK  153  A    between atoms: _355  and  _357
REMARK  154  A    between atoms: _357  and  _358
REMARK  155  A    between atoms: _357  and  _360
REMARK  156  A    between atoms: _360  and  _361
REMARK  157  A    between atoms: _367  and  _369
REMARK  158  A    between atoms: _369  and  _370
REMARK  159  A    between atoms: _369  and  _372
REMARK  160  A    between atoms: _372  and  _373
REMARK  161  A    between atoms: _376  and  _378
REMARK  162  A    between atoms: _378  and  _379
REMARK  163  A    between atoms: _378  and  _381
REMARK  164  A    between atoms: _381  and  _382
REMARK  165  A    between atoms: _387  and  _389
REMARK  166  A    between atoms: _389  and  _390
REMARK  167  A    between atoms: _389  and  _392
REMARK  168  A    between atoms: _395  and  _397
REMARK  169  A    between atoms: _397  and  _398
REMARK  170  A    between atoms: _401  and  _403
REMARK  171  A    between atoms: _403  and  _404
REMARK  172  A    between atoms: _403  and  _406
REMARK  173  A    between atoms: _406  and  _407
REMARK  174  A    between atoms: _413  and  _415
REMARK  175  A    between atoms: _415  and  _416
REMARK  176  A    between atoms: _415  and  _418
REMARK  177  A    between atoms: _418  and  _419
REMARK  178  A    between atoms: _419  and  _420
REMARK  179  A    between atoms: _425  and  _427
REMARK  180  A    between atoms: _427  and  _428
REMARK  181  A    between atoms: _427  and  _430
REMARK  182  A    between atoms: _430  and  _431
REMARK  183  A    between atoms: _431  and  _432
REMARK  184  A    between atoms: _432  and  _433
REMARK  185  A    between atoms: _433  and  _434
REMARK  186  A    between atoms: _438  and  _440
REMARK  187  A    between atoms: _440  and  _441
REMARK  188  A    between atoms: _440  and  _443
REMARK  189  A    between atoms: _446  and  _448
REMARK  190  A    between atoms: _448  and  _449
REMARK  191  A    between atoms: _448  and  _451
REMARK  192  A    between atoms: _454  and  _456
REMARK  193  A    between atoms: _456  and  _457
REMARK  194  A    between atoms: _456  and  _459
REMARK  195  A    between atoms: _459  and  _460
REMARK  196  A    between atoms: _460  and  _461
REMARK  197  A    between atoms: _461  and  _462
REMARK  198  A    between atoms: _471  and  _473
REMARK  199  A    between atoms: _473  and  _474
REMARK  200  A    between atoms: _473  and  _476
REMARK  201  A    between atoms: _476  and  _477
REMARK  202  A    between atoms: _483  and  _485
REMARK  203  A    between atoms: _485  and  _486
REMARK  204  A    between atoms: _485  and  _488
REMARK  205  A    between atoms: _488  and  _489
REMARK  206  A    between atoms: _499  and  _501
REMARK  207  A    between atoms: _501  and  _502
REMARK  208  A    between atoms: _501  and  _504
REMARK  209  A    between atoms: _504  and  _505
REMARK  210  A    between atoms: _508  and  _510
REMARK  211  A    between atoms: _510  and  _511
REMARK  212  A    between atoms: _510  and  _513
REMARK  213  A    between atoms: _513  and  _514
REMARK  214  A    between atoms: _524  and  _526
REMARK  215  A    between atoms: _526  and  _527
REMARK  216  A    between atoms: _526  and  _529
REMARK  217  A    between atoms: _529  and  _530
REMARK  218  A    between atoms: _534  and  _535
REMARK  219  A    between atoms: _540  and  _542
REMARK  220  A    between atoms: _542  and  _543
REMARK  221  A    between atoms: _542  and  _545
REMARK  222  A    between atoms: _545  and  _546
REMARK  223  A    between atoms: _549  and  _551
REMARK  224  A    between atoms: _551  and  _552
REMARK  225  A    between atoms: _551  and  _554
REMARK  226  A    between atoms: _554  and  _555
REMARK  227  A    between atoms: _558  and  _560
REMARK  228  A    between atoms: _560  and  _561
REMARK  229  A    between atoms: _564  and  _566
REMARK  230  A    between atoms: _566  and  _567
REMARK  231  A    between atoms: _566  and  _569
REMARK  232  A    between atoms: _569  and  _570
REMARK  233  A    between atoms: _573  and  _575
REMARK  234  A    between atoms: _575  and  _576
REMARK  235  A    between atoms: _575  and  _578
REMARK  236  A    between atoms: _578  and  _579
REMARK  237  A    between atoms: _579  and  _580
REMARK  238  A    between atoms: _585  and  _587
REMARK  239  A    between atoms: _587  and  _588
REMARK  240  A    between atoms: _590  and  _592
REMARK  241  A    between atoms: _592  and  _593
REMARK  242  A    between atoms: _592  and  _595
REMARK  243  A    between atoms: _595  and  _596
REMARK  244  A    between atoms: _599  and  _601
REMARK  245  A    between atoms: _601  and  _602
REMARK  246  A    between atoms: _601  and  _604
REMARK  247  A    between atoms: _604  and  _605
REMARK  248  A    between atoms: _607  and  _609
REMARK  249  A    between atoms: _609  and  _610
REMARK  250  A    between atoms: _613  and  _615
REMARK  251  A    between atoms: _615  and  _616
REMARK  252  A    between atoms: _615  and  _618
REMARK  253  A    between atoms: _618  and  _619
REMARK  254  A    between atoms: _622  and  _624
REMARK  255  A    between atoms: _624  and  _625
REMARK  256  A    between atoms: _624  and  _627
REMARK  257  A    between atoms: _630  and  _632
REMARK  258  A    between atoms: _632  and  _633
REMARK  259  A    between atoms: _632  and  _635
REMARK  260  A    between atoms: _635  and  _636
REMARK  261  A    between atoms: _636  and  _637
REMARK  262  A    between atoms: _642  and  _644
REMARK  263  A    between atoms: _644  and  _645
REMARK  264  A    between atoms: _644  and  _647
REMARK  265  A    between atoms: _647  and  _648
REMARK  266  A    between atoms: _651  and  _653
REMARK  267  A    between atoms: _653  and  _654
REMARK  268  A    between atoms: _653  and  _656
REMARK  269  A    between atoms: _656  and  _657
REMARK                            x       y       z     vdW  Elec       q    Type
REMARK                         _______ _______ _______ _____ _____    ______ ____
ROOT
ATOM      1  C   GLU A   1      -4.198  -2.713  -9.350  0.00  0.00    +0.238 C 
ATOM      2  O   GLU A   1      -5.140  -3.228  -8.731  0.00  0.00    -0.274 OA
ATOM      3  N   ASP A   2      -2.922  -3.033  -9.139  0.00  0.00    -0.298 N 
ATOM      4  H   ASP A   2      -2.181  -2.540  -9.677  0.00  0.00    +0.150 HD
ENDROOT
BRANCH   1   5
ATOM      5  CA  GLU A   1      -4.460  -1.654 -10.420  0.00  0.00    +0.145 C 
BRANCH   5   6
ATOM      6  N   GLU A   1      -5.030  -2.238 -11.630  0.00  0.00    -0.238 NA
ATOM      7  H   GLU A   1      -5.790  -2.941 -11.530  0.00  0.00    +0.142 HD
ENDBRANCH   5   6
BRANCH   5   8
ATOM      8  CB  GLU A   1      -5.369  -0.562  -9.871  0.00  0.00    +0.038 C 
BRANCH   8   9
ATOM      9  CG  GLU A   1      -5.572   0.582 -10.853  0.00  0.00    +0.116 C 
BRANCH   9  10
ATOM     10  CD  GLU A   1      -4.258   1.237 -11.329  0.00  0.00    +0.365 C 
ATOM     11  OE2 GLU A   1      -3.258   1.274 -10.561  0.00  0.00    -0.246 OA
ATOM     12  OE1 GLU A   1      -4.235   1.721 -12.489  0.00  0.00    -0.246 OA
ENDBRANCH   9  10
ENDBRANCH   8   9
ENDBRANCH   5   8
ENDBRANCH   1   5
BRANCH   3  13
ATOM     13  CA  ASP A   2      -2.534  -4.058  -8.172  0.00  0.00    +0.148 C 
BRANCH  13  14
ATOM     14  C   ASP A   2      -1.412  -3.563  -7.243  0.00  0.00    +0.227 C 
ATOM     15  O   ASP A   2      -0.843  -2.487  -7.447  0.00  0.00    -0.286 OA
ENDBRANCH  13  14
BRANCH  13  16
ATOM     16  CB  ASP A   2      -2.103  -5.317  -8.921  0.00  0.00    +0.142 C 
BRANCH  16  17
ATOM     17  CG  ASP A   2      -2.407  -6.605  -8.159  0.00  0.00    +0.367 C 
ATOM     18  OD2 ASP A   2      -2.583  -6.589  -6.917  0.00  0.00    -0.246 OA
ATOM     19  OD1 ASP A   2      -2.470  -7.656  -8.829  0.00  0.00    -0.246 OA
ENDBRANCH  16  17
ENDBRANCH  13  16
ENDBRANCH   3  13
TORSDOF 9
REMARK  Name = ../refined-set-2016/2q7y/2q7y_pocket.pdb
REMARK  269 active torsions:
REMARK  status: ('A' for Active; 'I' for Inactive)
REMARK    1  A    between atoms: _1  and  _3
REMARK    2  A    between atoms: _3  and  _4
REMARK    3  A    between atoms: _3  and  _6
REMARK    4  A    between atoms: _8  and  _10
REMARK    5  A    between atoms: _10  and  _11
REMARK    6  A    between atoms: _10  and  _13
REMARK    7  A    between atoms: _13  and  _14
REMARK    8  A    between atoms: _14  and  _15
REMARK    9  A    between atoms: _20  and  _22
REMARK   10  A    between atoms: _22  and  _23
REMARK   11  A    between atoms: _22  and  _25
REMARK   12  A    between atoms: _25  and  _26
REMARK   13  A    between atoms: _32  and  _34
REMARK   14  A    between atoms: _34  and  _35
REMARK   15  A    between atoms: _34  and  _37
REMARK   16  A    between atoms: _37  and  _38
REMARK   17  A    between atoms: _40  and  _42
REMARK   18  A    between atoms: _42  and  _43
REMARK   19  A    between atoms: _42  and  _45
REMARK   20  A    between atoms: _45  and  _46
REMARK   21  A    between atoms: _51  and  _53
REMARK   22  A    between atoms: _53  and  _54
REMARK   23  A    between atoms: _53  and  _56
REMARK   24  A    between atoms: _56  and  _57
REMARK   25  A    between atoms: _57  and  _58
REMARK   26  A    between atoms: _60  and  _62
REMARK   27  A    between atoms: _62  and  _63
REMARK   28  A    between atoms: _62  and  _65
REMARK   29  A    between atoms: _65  and  _66
REMARK   30  A    between atoms: _72  and  _74
REMARK   31  A    between atoms: _74  and  _75
REMARK   32  A    between atoms: _74  and  _77
REMARK   33  A    between atoms: _77  and  _78
REMARK   34  A    between atoms: _78  and  _79
REMARK   35  A    between atoms: _84  and  _86
REMARK   36  A    between atoms: _86  and  _87
REMARK   37  A    between atoms: _86  and  _89
REMARK   38  A    between atoms: _92  and  _94
REMARK   39  A    between atoms: _94  and  _95
REMARK   40  A    between atoms: _94  and  _97
REMARK   41  A    between atoms: _97  and  _98
REMARK   42  A    between atoms: _103  and  _104
REMARK   43  A    between atoms: _106  and  _108
REMARK   44  A    between atoms: _108  and  _109
REMARK   45  A    between atoms: _108  and  _111
REMARK   46  A    between atoms: _111  and  _112
REMARK   47  A    between atoms: _112  and  _113
REMARK   48  A    between atoms: _113  and  _114
REMARK   49  A    between atoms: _123  and  _125
REMARK   50  A    between atoms: _125  and  _126
REMARK   51  A    between atoms: _125  and  _128
REMARK   52  A    between atoms: _131  and  _133
REMARK   53  A    between atoms: _133  and  _134
REMARK   54  A    between atoms: _133  and  _136
REMARK   55  A    between atoms: _136  and  _137
REMARK   56  A    between atoms: _139  and  _141
REMARK   57  A    between atoms: _141  and  _142
REMARK   58  A    between atoms: _141  and  _144
REMARK   59  A    between atoms: _144  and  _145
REMARK   60  A    between atoms: _151  and  _153
REMARK   61  A    between atoms: _153  and  _154
REMARK   62  A    between atoms: _153  and  _156
REMARK   63  A    between atoms: _156  and  _157
REMARK   64  A    between atoms: _160  and  _162
REMARK   65  A    between atoms: _162  and  _163
REMARK   66  A    between atoms: _162  and  _165
REMARK   67  A    between atoms: _165  and  _166
REMARK   68  A    between atoms: _166  and  _167
REMARK   69  A    between atoms: _167  and  _168
REMARK   70  A    between atoms: _177  and  _179
REMARK   71  A    between atoms: _179  and  _180
REMARK   72  A    between atoms: _179  and  _182
REMARK   73  A    between atoms: _182  and  _183
REMARK   74  A    between atoms: _186  and  _188
REMARK   75  A    between atoms: _188  and  _189
REMARK   76  A    between atoms: _188  and  _191
REMARK   77  A    between atoms: _191  and  _192
REMARK   78  A    between atoms: _195  and  _197
REMARK   79  A    between atoms: _197  and  _198
REMARK   80  A    between atoms: _197  and  _200
REMARK   81  A    between atoms: _200  and  _201
REMARK   82  A    between atoms: _201  and  _202
REMARK   83  A    between atoms: _207  and  _209
REMARK   84  A    between atoms: _209  and  _210
REMARK   85  A    between atoms: _209  and  _212
REMARK   86  A    between atoms: _212  and  _213
REMARK   87  A    between atoms: _213  and  _214
REMARK   88  A    between atoms: _217  and  _219
REMARK   89  A    between atoms: _219  and  _220
REMARK   90  A    between atoms: _219  and  _222
REMARK   91  A    between atoms: _222  and  _223
REMARK   92  A    between atoms: _226  and  _228
REMARK   93  A    between atoms: _228  and  _229
REMARK   94  A    between atoms: _228  and  _231
REMARK   95  A    between atoms: _234  and  _236
REMARK   96  A    between atoms: _236  and  _237
REMARK   97  A    between atoms: _236  and  _239
REMARK   98  A    between atoms: _239  and  _240
REMARK   99  A    between atoms: _240  and  _241
REMARK  100  A    between atoms: _241  and  _242
REMARK  101  A    between atoms: _242  and  _243
REMARK  102  A    between atoms: _247  and  _249
REMARK  103  A    between atoms: _249  and  _250
REMARK  104  A    between atoms: _249  and  _252
REMARK  105  A    between atoms: _252  and  _253
REMARK  106  A    between atoms: _253  and  _254
REMARK  107  A    between atoms: _256  and  _258
REMARK  108  A    between atoms: _258  and  _259
REMARK  109  A    between atoms: _258  and  _261
REMARK  110  A    between atoms: _261  and  _262
REMARK  111  A    between atoms: _262  and  _263
REMARK  112  A    between atoms: _265  and  _267
REMARK  113  A    between atoms: _267  and  _268
REMARK  114  A    between atoms: _267  and  _270
REMARK  115  A    between atoms: _270  and  _271
REMARK  116  A    between atoms: _273  and  _275
REMARK  117  A    between atoms: _275  and  _276
REMARK  118  A    between atoms: _275  and  _278
REMARK  119  A    between atoms: _278  and  _279
REMARK  120  A    between atoms: _279  and  _280
REMARK  121  A    between atoms: _283  and  _285
REMARK  122  A    between atoms: _285  and  _286
REMARK  123  A    between atoms: _285  and  _288
REMARK  124  A    between atoms: _288  and  _289
REMARK  125  A    between atoms: _292  and  _294
REMARK  126  A    between atoms: _294  and  _295
REMARK  127  A    between atoms: _294  and  _297
REMARK  128  A    between atoms: _297  and  _298
REMARK  129  A    between atoms: _301  and  _303
REMARK  130  A    between atoms: _303  and  _304
REMARK  131  A    between atoms: _303  and  _306
REMARK  132  A    between atoms: _306  and  _307
REMARK  133  A    between atoms: _307  and  _308
REMARK  134  A    between atoms: _311  and  _313
REMARK  135  A    between atoms: _313  and  _314
REMARK  136  A    between atoms: _313  and  _316
REMARK  137  A    between atoms: _316  and  _317
REMARK  138  A    between atoms: _320  and  _322
REMARK  139  A    between atoms: _322  and  _323
REMARK  140  A    between atoms: _322  and  _325
REMARK  141  A    between atoms: _325  and  _326
REMARK  142  A    between atoms: _326  and  _327
REMARK  143  A    between atoms: _332  and  _334
REMARK  144  A    between atoms: _334  and  _335
REMARK  145  A    between atoms: _334  and  _337
REMARK  146  A    between atoms: _337  and  _338
REMARK  147  A    between atoms: _341  and  _343
REMARK  148  A    between atoms: _343  and  _344
REMARK  149  A    between atoms: _343  and  _346
REMARK  150  A    between atoms: _346  and  _347
REMARK  151  A    between atoms: _349  and  _351
REMARK  152  A    between atoms: _351  and  _352
REMARK  153  A    between atoms: _355  and  _357
REMARK  154  A    between atoms: _357  and  _358
REMARK  155  A    between atoms: _357  and  _360
REMARK  156  A    between atoms: _360  and  _361
REMARK  157  A    between atoms: _367  and  _369
REMARK  158  A    between atoms: _369  and  _370
REMARK  159  A    between atoms: _369  and  _372
REMARK  160  A    between atoms: _372  and  _373
REMARK  161  A    between atoms: _376  and  _378
REMARK  162  A    between atoms: _378  and  _379
REMARK  163  A    between atoms: _378  and  _381
REMARK  164  A    between atoms: _381  and  _382
REMARK  165  A    between atoms: _387  and  _389
REMARK  166  A    between atoms: _389  and  _390
REMARK  167  A    between atoms: _389  and  _392
REMARK  168  A    between atoms: _395  and  _397
REMARK  169  A    between atoms: _397  and  _398
REMARK  170  A    between atoms: _401  and  _403
REMARK  171  A    between atoms: _403  and  _404
REMARK  172  A    between atoms: _403  and  _406
REMARK  173  A    between atoms: _406  and  _407
REMARK  174  A    between atoms: _413  and  _415
REMARK  175  A    between atoms: _415  and  _416
REMARK  176  A    between atoms: _415  and  _418
REMARK  177  A    between atoms: _418  and  _419
REMARK  178  A    between atoms: _419  and  _420
REMARK  179  A    between atoms: _425  and  _427
REMARK  180  A    between atoms: _427  and  _428
REMARK  181  A    between atoms: _427  and  _430
REMARK  182  A    between atoms: _430  and  _431
REMARK  183  A    between atoms: _431  and  _432
REMARK  184  A    between atoms: _432  and  _433
REMARK  185  A    between atoms: _433  and  _434
REMARK  186  A    between atoms: _438  and  _440
REMARK  187  A    between atoms: _440  and  _441
REMARK  188  A    between atoms: _440  and  _443
REMARK  189  A    between atoms: _446  and  _448
REMARK  190  A    between atoms: _448  and  _449
REMARK  191  A    between atoms: _448  and  _451
REMARK  192  A    between atoms: _454  and  _456
REMARK  193  A    between atoms: _456  and  _457
REMARK  194  A    between atoms: _456  and  _459
REMARK  195  A    between atoms: _459  and  _460
REMARK  196  A    between atoms: _460  and  _461
REMARK  197  A    between atoms: _461  and  _462
REMARK  198  A    between atoms: _471  and  _473
REMARK  199  A    between atoms: _473  and  _474
REMARK  200  A    between atoms: _473  and  _476
REMARK  201  A    between atoms: _476  and  _477
REMARK  202  A    between atoms: _483  and  _485
REMARK  203  A    between atoms: _485  and  _486
REMARK  204  A    between atoms: _485  and  _488
REMARK  205  A    between atoms: _488  and  _489
REMARK  206  A    between atoms: _499  and  _501
REMARK  207  A    between atoms: _501  and  _502
REMARK  208  A    between atoms: _501  and  _504
REMARK  209  A    between atoms: _504  and  _505
REMARK  210  A    between atoms: _508  and  _510
REMARK  211  A    between atoms: _510  and  _511
REMARK  212  A    between atoms: _510  and  _513
REMARK  213  A    between atoms: _513  and  _514
REMARK  214  A    between atoms: _524  and  _526
REMARK  215  A    between atoms: _526  and  _527
REMARK  216  A    between atoms: _526  and  _529
REMARK  217  A    between atoms: _529  and  _530
REMARK  218  A    between atoms: _534  and  _535
REMARK  219  A    between atoms: _540  and  _542
REMARK  220  A    between atoms: _542  and  _543
REMARK  221  A    between atoms: _542  and  _545
REMARK  222  A    between atoms: _545  and  _546
REMARK  223  A    between atoms: _549  and  _551
REMARK  224  A    between atoms: _551  and  _552
REMARK  225  A    between atoms: _551  and  _554
REMARK  226  A    between atoms: _554  and  _555
REMARK  227  A    between atoms: _558  and  _560
REMARK  228  A    between atoms: _560  and  _561
REMARK  229  A    between atoms: _564  and  _566
REMARK  230  A    between atoms: _566  and  _567
REMARK  231  A    between atoms: _566  and  _569
REMARK  232  A    between atoms: _569  and  _570
REMARK  233  A    between atoms: _573  and  _575
REMARK  234  A    between atoms: _575  and  _576
REMARK  235  A    between atoms: _575  and  _578
REMARK  236  A    between atoms: _578  and  _579
REMARK  237  A    between atoms: _579  and  _580
REMARK  238  A    between atoms: _585  and  _587
REMARK  239  A    between atoms: _587  and  _588
REMARK  240  A    between atoms: _590  and  _592
REMARK  241  A    between atoms: _592  and  _593
REMARK  242  A    between atoms: _592  and  _595
REMARK  243  A    between atoms: _595  and  _596
REMARK  244  A    between atoms: _599  and  _601
REMARK  245  A    between atoms: _601  and  _602
REMARK  246  A    between atoms: _601  and  _604
REMARK  247  A    between atoms: _604  and  _605
REMARK  248  A    between atoms: _607  and  _609
REMARK  249  A    between atoms: _609  and  _610
REMARK  250  A    between atoms: _613  and  _615
REMARK  251  A    between atoms: _615  and  _616
REMARK  252  A    between atoms: _615  and  _618
REMARK  253  A    between atoms: _618  and  _619
REMARK  254  A    between atoms: _622  and  _624
REMARK  255  A    between atoms: _624  and  _625
REMARK  256  A    between atoms: _624  and  _627
REMARK  257  A    between atoms: _630  and  _632
REMARK  258  A    between atoms: _632  and  _633
REMARK  259  A    between atoms: _632  and  _635
REMARK  260  A    between atoms: _635  and  _636
REMARK  261  A    between atoms: _636  and  _637
REMARK  262  A    between atoms: _642  and  _644
REMARK  263  A    between atoms: _644  and  _645
REMARK  264  A    between atoms: _644  and  _647
REMARK  265  A    between atoms: _647  and  _648
REMARK  266  A    between atoms: _651  and  _653
REMARK  267  A    between atoms: _653  and  _654
REMARK  268  A    between atoms: _653  and  _656
REMARK  269  A    between atoms: _656  and  _657
REMARK                            x       y       z     vdW  Elec       q    Type
REMARK                         _______ _______ _______ _____ _____    ______ ____
ROOT
ATOM      1  CA  GLN A   4      -2.663   9.377   1.264  0.00  0.00    +0.149 C 
ENDROOT
BRANCH   1   4
ATOM      2  C   ILE A   3      -2.663   7.042   0.570  0.00  0.00    +0.241 C 
ATOM      3  O   ILE A   3      -2.314   6.663   1.684  0.00  0.00    -0.273 OA
ATOM      4  N   GLN A   4      -2.818   8.327   0.259  0.00  0.00    -0.297 N 
ATOM      5  H   GLN A   4      -3.054   8.589  -0.719  0.00  0.00    +0.150 HD
BRANCH   2   6
ATOM      6  CA  ILE A   3      -2.920   6.021  -0.538  0.00  0.00    +0.149 C 
BRANCH   6   8
ATOM      7  C   GLU A   2      -1.112   4.769  -1.582  0.00  0.00    +0.241 C 
ATOM      8  N   ILE A   3      -1.837   5.053  -0.511  0.00  0.00    -0.297 N 
ATOM      9  H   ILE A   3      -1.623   4.565   0.382  0.00  0.00    +0.150 HD
ATOM     10  O   GLU A   2      -1.365   5.186  -2.702  0.00  0.00    -0.273 OA
BRANCH   7  11
ATOM     11  CA  GLU A   2       0.070   3.870  -1.381  0.00  0.00    +0.149 C 
BRANCH  11  14
ATOM     12  C   ILE A   1      -0.160   1.590  -2.124  0.00  0.00    +0.238 C 
ATOM     13  O   ILE A   1      -0.111   1.133  -0.977  0.00  0.00    -0.274 OA
ATOM     14  N   GLU A   2      -0.032   2.878  -2.416  0.00  0.00    -0.297 N 
ATOM     15  H   GLU A   2      -0.005   3.175  -3.412  0.00  0.00    +0.150 HD
BRANCH  12  16
ATOM     16  CA  ILE A   1      -0.375   0.676  -3.299  0.00  0.00    +0.145 C 
BRANCH  16  17
ATOM     17  N   ILE A   1       0.467  -0.505  -3.153  0.00  0.00    -0.238 NA
ATOM     18  H   ILE A   1       0.515  -0.979  -2.229  0.00  0.00    +0.142 HD
ENDBRANCH  16  17
BRANCH  16  19
ATOM     19  CB  ILE A   1      -1.881   0.303  -3.359  0.00  0.00    +0.025 C 
ATOM     20  CG2 ILE A   1      -2.773   1.536  -3.214  0.00  0.00    +0.002 C 
BRANCH  19  21
ATOM     21  CG1 ILE A   1      -2.193  -0.397  -4.678  0.00  0.00    +0.002 C 
ATOM     22  CD1 ILE A   1      -3.679  -0.686  -4.877  0.00  0.00    +0.000 C 
ENDBRANCH  19  21
ENDBRANCH  16  19
ENDBRANCH  12  16
ENDBRANCH  11  14
BRANCH  11  23
ATOM     23  CB  GLU A   2       1.385   4.677  -1.502  0.00  0.00    +0.041 C 
BRANCH  23  24
ATOM     24  CG  GLU A   2       1.479   5.790  -0.439  0.00  0.00    +0.116 C 
BRANCH  24  25
ATOM     25  CD  GLU A   2       1.694   5.216   0.952  0.00  0.00    +0.365 C 
ATOM     26  OE2 GLU A   2       1.216   5.865   1.927  0.00  0.00    -0.246 OA
ATOM     27  OE1 GLU A   2       2.343   4.114   1.036  0.00  0.00    -0.246 OA
ENDBRANCH  24  25
ENDBRANCH  23  24
ENDBRANCH  11  23
ENDBRANCH   7  11
ENDBRANCH   6   8
BRANCH   6  28
ATOM     28  CB  ILE A   3      -4.287   5.344  -0.344  0.00  0.00    +0.027 C 
ATOM     29  CG2 ILE A   3      -5.464   6.419  -0.250  0.00  0.00    +0.002 C 
BRANCH  28  30
ATOM     30  CG1 ILE A   3      -4.542   4.366  -1.506  0.00  0.00    +0.002 C 
ATOM     31  CD1 ILE A   3      -5.524   3.387  -1.175  0.00  0.00    +0.000 C 
ENDBRANCH  28  30
ENDBRANCH   6  28
ENDBRANCH   2   6
ENDBRANCH   1   4
BRANCH   1  32
ATOM     32  C   GLN A   4      -3.943  10.202   1.298  0.00  0.00    +0.241 C 
ATOM     33  N   LEU A   5      -4.377  10.617   2.486  0.00  0.00    -0.297 N 
ATOM     34  H   LEU A   5      -3.882  10.307   3.347  0.00  0.00    +0.150 HD
ATOM     35  O   GLN A   4      -4.541  10.442   0.253  0.00  0.00    -0.273 OA
BRANCH  33  36
ATOM     36  CA  LEU A   5      -5.528  11.494   2.603  0.00  0.00    +0.149 C 
BRANCH  36  37
ATOM     37  C   LEU A   5      -5.087  12.680   3.410  0.00  0.00    +0.241 C 
ATOM     38  O   LEU A   5      -4.423  12.533   4.487  0.00  0.00    -0.273 OA
ATOM     39  N   SER A   6      -5.427  13.862   2.912  0.00  0.00    -0.295 N 
ATOM     40  H   SER A   6      -5.865  13.901   1.970  0.00  0.00    +0.150 HD
BRANCH  39  41
ATOM     41  CA  SER A   6      -5.208  15.117   3.641  0.00  0.00    +0.178 C 
BRANCH  41  42
ATOM     42  C   SER A   6      -6.559  15.814   3.854  0.00  0.00    +0.243 C 
ATOM     43  N   ALA A   7      -6.969  15.971   5.104  0.00  0.00    -0.298 N 
ATOM     44  H   ALA A   7      -6.305  15.740   5.871  0.00  0.00    +0.150 HD
ATOM     45  O   SER A   6      -7.197  16.195   2.901  0.00  0.00    -0.273 OA
BRANCH  43  46
ATOM     46  CA  ALA A   7      -8.295  16.448   5.465  0.00  0.00    +0.137 C 
ATOM     47  CB  ALA A   7      -9.158  15.240   5.882  0.00  0.00    +0.030 C 
BRANCH  46  48
ATOM     48  C   ALA A   7      -8.210  17.438   6.619  0.00  0.00    +0.227 C 
ATOM     49  O   ALA A   7      -7.335  17.321   7.477  0.00  0.00    -0.286 OA
ENDBRANCH  46  48
ENDBRANCH  43  46
ENDBRANCH  41  42
BRANCH  41  50
ATOM     50  CB  SER A   6      -4.242  16.029   2.884  0.00  0.00    +0.166 C 
BRANCH  50  51
ATOM     51  OG  SER A   6      -4.086  17.262   3.603  0.00  0.00    -0.380 OA
ATOM     52  H   SER A   6      -3.460  17.852   3.112  0.00  0.00    +0.211 HD
ENDBRANCH  50  51
ENDBRANCH  41  50
ENDBRANCH  39  41
ENDBRANCH  36  37
BRANCH  36  53
ATOM     53  CB  LEU A   5      -6.741  10.813   3.280  0.00  0.00    +0.029 C 
BRANCH  53  54
ATOM     54  CG  LEU A   5      -7.591   9.830   2.513  0.00  0.00    +0.002 C 
ATOM     55  CD2 LEU A   5      -8.960   9.556   3.153  0.00  0.00    +0.000 C 
ATOM     56  CD1 LEU A   5      -6.833   8.538   2.416  0.00  0.00    +0.000 C 
ENDBRANCH  53  54
ENDBRANCH  36  53
ENDBRANCH  33  36
ENDBRANCH   1  32
BRANCH   1  57
ATOM     57  CB  GLN A   4      -1.506  10.273   0.881  0.00  0.00    +0.039 C 
BRANCH  57  58
ATOM     58  CG  GLN A   4      -0.136   9.593   0.996  0.00  0.00    +0.087 C 
BRANCH  58  59
ATOM     59  CD  GLN A   4       0.888  10.320   0.180  0.00  0.00    +0.219 C 
ATOM     60  NE2 GLN A   4       1.538  11.316   0.779  0.00  0.00    -0.329 N 
ATOM     61 HE21 GLN A   4       1.327  11.553   1.769  0.00  0.00    +0.145 HD
ATOM     62 HE22 GLN A   4       2.257  11.856   0.257  0.00  0.00    +0.145 HD
ATOM     63  OE1 GLN A   4       1.099   9.997  -0.991  0.00  0.00    -0.275 OA
ENDBRANCH  58  59
ENDBRANCH  57  58
ENDBRANCH   1  57
TORSDOF 28
REMARK  Name = ../refined-set-2016/2q7y/2q7y_pocket.pdb
REMARK  269 active torsions:
REMARK  status: ('A' for Active; 'I' for Inactive)
REMARK    1  A    between atoms: _1  and  _3
REMARK    2  A    between atoms: _3  and  _4
REMARK    3  A    between atoms: _3  and  _6
REMARK    4  A    between atoms: _8  and  _10
REMARK    5  A    between atoms: _10  and  _11
REMARK    6  A    between atoms: _10  and  _13
REMARK    7  A    between atoms: _13  and  _14
REMARK    8  A    between atoms: _14  and  _15
REMARK    9  A    between atoms: _20  and  _22
REMARK   10  A    between atoms: _22  and  _23
REMARK   11  A    between atoms: _22  and  _25
REMARK   12  A    between atoms: _25  and  _26
REMARK   13  A    between atoms: _32  and  _34
REMARK   14  A    between atoms: _34  and  _35
REMARK   15  A    between atoms: _34  and  _37
REMARK   16  A    between atoms: _37  and  _38
REMARK   17  A    between atoms: _40  and  _42
REMARK   18  A    between atoms: _42  and  _43
REMARK   19  A    between atoms: _42  and  _45
REMARK   20  A    between atoms: _45  and  _46
REMARK   21  A    between atoms: _51  and  _53
REMARK   22  A    between atoms: _53  and  _54
REMARK   23  A    between atoms: _53  and  _56
REMARK   24  A    between atoms: _56  and  _57
REMARK   25  A    between atoms: _57  and  _58
REMARK   26  A    between atoms: _60  and  _62
REMARK   27  A    between atoms: _62  and  _63
REMARK   28  A    between atoms: _62  and  _65
REMARK   29  A    between atoms: _65  and  _66
REMARK   30  A    between atoms: _72  and  _74
REMARK   31  A    between atoms: _74  and  _75
REMARK   32  A    between atoms: _74  and  _77
REMARK   33  A    between atoms: _77  and  _78
REMARK   34  A    between atoms: _78  and  _79
REMARK   35  A    between atoms: _84  and  _86
REMARK   36  A    between atoms: _86  and  _87
REMARK   37  A    between atoms: _86  and  _89
REMARK   38  A    between atoms: _92  and  _94
REMARK   39  A    between atoms: _94  and  _95
REMARK   40  A    between atoms: _94  and  _97
REMARK   41  A    between atoms: _97  and  _98
REMARK   42  A    between atoms: _103  and  _104
REMARK   43  A    between atoms: _106  and  _108
REMARK   44  A    between atoms: _108  and  _109
REMARK   45  A    between atoms: _108  and  _111
REMARK   46  A    between atoms: _111  and  _112
REMARK   47  A    between atoms: _112  and  _113
REMARK   48  A    between atoms: _113  and  _114
REMARK   49  A    between atoms: _123  and  _125
REMARK   50  A    between atoms: _125  and  _126
REMARK   51  A    between atoms: _125  and  _128
REMARK   52  A    between atoms: _131  and  _133
REMARK   53  A    between atoms: _133  and  _134
REMARK   54  A    between atoms: _133  and  _136
REMARK   55  A    between atoms: _136  and  _137
REMARK   56  A    between atoms: _139  and  _141
REMARK   57  A    between atoms: _141  and  _142
REMARK   58  A    between atoms: _141  and  _144
REMARK   59  A    between atoms: _144  and  _145
REMARK   60  A    between atoms: _151  and  _153
REMARK   61  A    between atoms: _153  and  _154
REMARK   62  A    between atoms: _153  and  _156
REMARK   63  A    between atoms: _156  and  _157
REMARK   64  A    between atoms: _160  and  _162
REMARK   65  A    between atoms: _162  and  _163
REMARK   66  A    between atoms: _162  and  _165
REMARK   67  A    between atoms: _165  and  _166
REMARK   68  A    between atoms: _166  and  _167
REMARK   69  A    between atoms: _167  and  _168
REMARK   70  A    between atoms: _177  and  _179
REMARK   71  A    between atoms: _179  and  _180
REMARK   72  A    between atoms: _179  and  _182
REMARK   73  A    between atoms: _182  and  _183
REMARK   74  A    between atoms: _186  and  _188
REMARK   75  A    between atoms: _188  and  _189
REMARK   76  A    between atoms: _188  and  _191
REMARK   77  A    between atoms: _191  and  _192
REMARK   78  A    between atoms: _195  and  _197
REMARK   79  A    between atoms: _197  and  _198
REMARK   80  A    between atoms: _197  and  _200
REMARK   81  A    between atoms: _200  and  _201
REMARK   82  A    between atoms: _201  and  _202
REMARK   83  A    between atoms: _207  and  _209
REMARK   84  A    between atoms: _209  and  _210
REMARK   85  A    between atoms: _209  and  _212
REMARK   86  A    between atoms: _212  and  _213
REMARK   87  A    between atoms: _213  and  _214
REMARK   88  A    between atoms: _217  and  _219
REMARK   89  A    between atoms: _219  and  _220
REMARK   90  A    between atoms: _219  and  _222
REMARK   91  A    between atoms: _222  and  _223
REMARK   92  A    between atoms: _226  and  _228
REMARK   93  A    between atoms: _228  and  _229
REMARK   94  A    between atoms: _228  and  _231
REMARK   95  A    between atoms: _234  and  _236
REMARK   96  A    between atoms: _236  and  _237
REMARK   97  A    between atoms: _236  and  _239
REMARK   98  A    between atoms: _239  and  _240
REMARK   99  A    between atoms: _240  and  _241
REMARK  100  A    between atoms: _241  and  _242
REMARK  101  A    between atoms: _242  and  _243
REMARK  102  A    between atoms: _247  and  _249
REMARK  103  A    between atoms: _249  and  _250
REMARK  104  A    between atoms: _249  and  _252
REMARK  105  A    between atoms: _252  and  _253
REMARK  106  A    between atoms: _253  and  _254
REMARK  107  A    between atoms: _256  and  _258
REMARK  108  A    between atoms: _258  and  _259
REMARK  109  A    between atoms: _258  and  _261
REMARK  110  A    between atoms: _261  and  _262
REMARK  111  A    between atoms: _262  and  _263
REMARK  112  A    between atoms: _265  and  _267
REMARK  113  A    between atoms: _267  and  _268
REMARK  114  A    between atoms: _267  and  _270
REMARK  115  A    between atoms: _270  and  _271
REMARK  116  A    between atoms: _273  and  _275
REMARK  117  A    between atoms: _275  and  _276
REMARK  118  A    between atoms: _275  and  _278
REMARK  119  A    between atoms: _278  and  _279
REMARK  120  A    between atoms: _279  and  _280
REMARK  121  A    between atoms: _283  and  _285
REMARK  122  A    between atoms: _285  and  _286
REMARK  123  A    between atoms: _285  and  _288
REMARK  124  A    between atoms: _288  and  _289
REMARK  125  A    between atoms: _292  and  _294
REMARK  126  A    between atoms: _294  and  _295
REMARK  127  A    between atoms: _294  and  _297
REMARK  128  A    between atoms: _297  and  _298
REMARK  129  A    between atoms: _301  and  _303
REMARK  130  A    between atoms: _303  and  _304
REMARK  131  A    between atoms: _303  and  _306
REMARK  132  A    between atoms: _306  and  _307
REMARK  133  A    between atoms: _307  and  _308
REMARK  134  A    between atoms: _311  and  _313
REMARK  135  A    between atoms: _313  and  _314
REMARK  136  A    between atoms: _313  and  _316
REMARK  137  A    between atoms: _316  and  _317
REMARK  138  A    between atoms: _320  and  _322
REMARK  139  A    between atoms: _322  and  _323
REMARK  140  A    between atoms: _322  and  _325
REMARK  141  A    between atoms: _325  and  _326
REMARK  142  A    between atoms: _326  and  _327
REMARK  143  A    between atoms: _332  and  _334
REMARK  144  A    between atoms: _334  and  _335
REMARK  145  A    between atoms: _334  and  _337
REMARK  146  A    between atoms: _337  and  _338
REMARK  147  A    between atoms: _341  and  _343
REMARK  148  A    between atoms: _343  and  _344
REMARK  149  A    between atoms: _343  and  _346
REMARK  150  A    between atoms: _346  and  _347
REMARK  151  A    between atoms: _349  and  _351
REMARK  152  A    between atoms: _351  and  _352
REMARK  153  A    between atoms: _355  and  _357
REMARK  154  A    between atoms: _357  and  _358
REMARK  155  A    between atoms: _357  and  _360
REMARK  156  A    between atoms: _360  and  _361
REMARK  157  A    between atoms: _367  and  _369
REMARK  158  A    between atoms: _369  and  _370
REMARK  159  A    between atoms: _369  and  _372
REMARK  160  A    between atoms: _372  and  _373
REMARK  161  A    between atoms: _376  and  _378
REMARK  162  A    between atoms: _378  and  _379
REMARK  163  A    between atoms: _378  and  _381
REMARK  164  A    between atoms: _381  and  _382
REMARK  165  A    between atoms: _387  and  _389
REMARK  166  A    between atoms: _389  and  _390
REMARK  167  A    between atoms: _389  and  _392
REMARK  168  A    between atoms: _395  and  _397
REMARK  169  A    between atoms: _397  and  _398
REMARK  170  A    between atoms: _401  and  _403
REMARK  171  A    between atoms: _403  and  _404
REMARK  172  A    between atoms: _403  and  _406
REMARK  173  A    between atoms: _406  and  _407
REMARK  174  A    between atoms: _413  and  _415
REMARK  175  A    between atoms: _415  and  _416
REMARK  176  A    between atoms: _415  and  _418
REMARK  177  A    between atoms: _418  and  _419
REMARK  178  A    between atoms: _419  and  _420
REMARK  179  A    between atoms: _425  and  _427
REMARK  180  A    between atoms: _427  and  _428
REMARK  181  A    between atoms: _427  and  _430
REMARK  182  A    between atoms: _430  and  _431
REMARK  183  A    between atoms: _431  and  _432
REMARK  184  A    between atoms: _432  and  _433
REMARK  185  A    between atoms: _433  and  _434
REMARK  186  A    between atoms: _438  and  _440
REMARK  187  A    between atoms: _440  and  _441
REMARK  188  A    between atoms: _440  and  _443
REMARK  189  A    between atoms: _446  and  _448
REMARK  190  A    between atoms: _448  and  _449
REMARK  191  A    between atoms: _448  and  _451
REMARK  192  A    between atoms: _454  and  _456
REMARK  193  A    between atoms: _456  and  _457
REMARK  194  A    between atoms: _456  and  _459
REMARK  195  A    between atoms: _459  and  _460
REMARK  196  A    between atoms: _460  and  _461
REMARK  197  A    between atoms: _461  and  _462
REMARK  198  A    between atoms: _471  and  _473
REMARK  199  A    between atoms: _473  and  _474
REMARK  200  A    between atoms: _473  and  _476
REMARK  201  A    between atoms: _476  and  _477
REMARK  202  A    between atoms: _483  and  _485
REMARK  203  A    between atoms: _485  and  _486
REMARK  204  A    between atoms: _485  and  _488
REMARK  205  A    between atoms: _488  and  _489
REMARK  206  A    between atoms: _499  and  _501
REMARK  207  A    between atoms: _501  and  _502
REMARK  208  A    between atoms: _501  and  _504
REMARK  209  A    between atoms: _504  and  _505
REMARK  210  A    between atoms: _508  and  _510
REMARK  211  A    between atoms: _510  and  _511
REMARK  212  A    between atoms: _510  and  _513
REMARK  213  A    between atoms: _513  and  _514
REMARK  214  A    between atoms: _524  and  _526
REMARK  215  A    between atoms: _526  and  _527
REMARK  216  A    between atoms: _526  and  _529
REMARK  217  A    between atoms: _529  and  _530
REMARK  218  A    between atoms: _534  and  _535
REMARK  219  A    between atoms: _540  and  _542
REMARK  220  A    between atoms: _542  and  _543
REMARK  221  A    between atoms: _542  and  _545
REMARK  222  A    between atoms: _545  and  _546
REMARK  223  A    between atoms: _549  and  _551
REMARK  224  A    between atoms: _551  and  _552
REMARK  225  A    between atoms: _551  and  _554
REMARK  226  A    between atoms: _554  and  _555
REMARK  227  A    between atoms: _558  and  _560
REMARK  228  A    between atoms: _560  and  _561
REMARK  229  A    between atoms: _564  and  _566
REMARK  230  A    between atoms: _566  and  _567
REMARK  231  A    between atoms: _566  and  _569
REMARK  232  A    between atoms: _569  and  _570
REMARK  233  A    between atoms: _573  and  _575
REMARK  234  A    between atoms: _575  and  _576
REMARK  235  A    between atoms: _575  and  _578
REMARK  236  A    between atoms: _578  and  _579
REMARK  237  A    between atoms: _579  and  _580
REMARK  238  A    between atoms: _585  and  _587
REMARK  239  A    between atoms: _587  and  _588
REMARK  240  A    between atoms: _590  and  _592
REMARK  241  A    between atoms: _592  and  _593
REMARK  242  A    between atoms: _592  and  _595
REMARK  243  A    between atoms: _595  and  _596
REMARK  244  A    between atoms: _599  and  _601
REMARK  245  A    between atoms: _601  and  _602
REMARK  246  A    between atoms: _601  and  _604
REMARK  247  A    between atoms: _604  and  _605
REMARK  248  A    between atoms: _607  and  _609
REMARK  249  A    between atoms: _609  and  _610
REMARK  250  A    between atoms: _613  and  _615
REMARK  251  A    between atoms: _615  and  _616
REMARK  252  A    between atoms: _615  and  _618
REMARK  253  A    between atoms: _618  and  _619
REMARK  254  A    between atoms: _622  and  _624
REMARK  255  A    between atoms: _624  and  _625
REMARK  256  A    between atoms: _624  and  _627
REMARK  257  A    between atoms: _630  and  _632
REMARK  258  A    between atoms: _632  and  _633
REMARK  259  A    between atoms: _632  and  _635
REMARK  260  A    between atoms: _635  and  _636
REMARK  261  A    between atoms: _636  and  _637
REMARK  262  A    between atoms: _642  and  _644
REMARK  263  A    between atoms: _644  and  _645
REMARK  264  A    between atoms: _644  and  _647
REMARK  265  A    between atoms: _647  and  _648
REMARK  266  A    between atoms: _651  and  _653
REMARK  267  A    between atoms: _653  and  _654
REMARK  268  A    between atoms: _653  and  _656
REMARK  269  A    between atoms: _656  and  _657
REMARK                            x       y       z     vdW  Elec       q    Type
REMARK                         _______ _______ _______ _____ _____    ______ ____
ROOT
ATOM      1  CA  VAL A   4      -6.856  11.855  -1.654  0.00  0.00    +0.149 C 
ENDROOT
BRANCH   1   2
ATOM      2  C   VAL A   4      -5.860  11.653  -2.820  0.00  0.00    +0.241 C 
ATOM      3  N   ALA A   5      -4.688  11.102  -2.514  0.00  0.00    -0.297 N 
ATOM      4  H   ALA A   5      -4.482  10.867  -1.522  0.00  0.00    +0.150 HD
ATOM      5  O   VAL A   4      -6.155  12.012  -3.970  0.00  0.00    -0.273 OA
BRANCH   3   6
ATOM      6  CA  ALA A   5      -3.686  10.820  -3.533  0.00  0.00    +0.149 C 
ATOM      7  CB  ALA A   5      -2.375  11.469  -3.160  0.00  0.00    +0.031 C 
BRANCH   6   8
ATOM      8  C   ALA A   5      -3.508   9.298  -3.633  0.00  0.00    +0.241 C 
ATOM      9  O   ALA A   5      -3.577   8.611  -2.626  0.00  0.00    -0.273 OA
ATOM     10  N   PHE A   6      -3.293   8.787  -4.839  0.00  0.00    -0.297 N 
ATOM     11  H   PHE A   6      -3.283   9.435  -5.652  0.00  0.00    +0.150 HD
BRANCH  10  12
ATOM     12  CA  PHE A   6      -3.070   7.367  -5.087  0.00  0.00    +0.153 C 
BRANCH  12  13
ATOM     13  C   PHE A   6      -1.701   7.288  -5.741  0.00  0.00    +0.241 C 
ATOM     14  N   GLN A   7      -0.798   6.475  -5.173  0.00  0.00    -0.298 N 
ATOM     15  H   GLN A   7      -1.080   5.900  -4.354  0.00  0.00    +0.150 HD
ATOM     16  O   PHE A   6      -1.456   7.954  -6.742  0.00  0.00    -0.273 OA
BRANCH  14  17
ATOM     17  CA  GLN A   7       0.561   6.375  -5.669  0.00  0.00    +0.137 C 
BRANCH  17  18
ATOM     18  C   GLN A   7       1.257   7.739  -5.793  0.00  0.00    +0.227 C 
ATOM     19  O   GLN A   7       2.052   7.947  -6.708  0.00  0.00    -0.286 OA
ENDBRANCH  17  18
BRANCH  17  20
ATOM     20  CB  GLN A   7       0.639   5.617  -7.020  0.00  0.00    +0.037 C 
BRANCH  20  21
ATOM     21  CG  GLN A   7      -0.028   4.239  -7.062  0.00  0.00    +0.087 C 
BRANCH  21  22
ATOM     22  CD  GLN A   7       0.637   3.221  -6.174  0.00  0.00    +0.219 C 
ATOM     23  OE1 GLN A   7       0.881   3.460  -4.986  0.00  0.00    -0.275 OA
ATOM     24  NE2 GLN A   7       0.935   2.061  -6.746  0.00  0.00    -0.329 N 
ATOM     25 HE21 GLN A   7       1.392   1.310  -6.191  0.00  0.00    +0.145 HD
ATOM     26 HE22 GLN A   7       0.711   1.903  -7.749  0.00  0.00    +0.145 HD
ENDBRANCH  21  22
ENDBRANCH  20  21
ENDBRANCH  17  20
ENDBRANCH  14  17
ENDBRANCH  12  13
BRANCH  12  27
ATOM     27  CB  PHE A   6      -4.203   6.822  -5.989  0.00  0.00    +0.055 C 
BRANCH  27  28
ATOM     28  CG  PHE A   6      -3.956   5.444  -6.582  0.00  0.00    -0.020 A 
ATOM     29  CD2 PHE A   6      -4.266   4.292  -5.861  0.00  0.00    -0.004 A 
ATOM     30  CE2 PHE A   6      -4.044   3.000  -6.418  0.00  0.00    -0.000 A 
ATOM     31  CZ  PHE A   6      -3.514   2.881  -7.700  0.00  0.00    -0.000 A 
ATOM     32  CE1 PHE A   6      -3.208   4.041  -8.433  0.00  0.00    -0.000 A 
ATOM     33  CD1 PHE A   6      -3.433   5.303  -7.871  0.00  0.00    -0.004 A 
ENDBRANCH  27  28
ENDBRANCH  12  27
ENDBRANCH  10  12
ENDBRANCH   6   8
ENDBRANCH   3   6
ENDBRANCH   1   2
BRANCH   1  36
ATOM     34  C   HIS A   3      -7.297  14.035  -0.592  0.00  0.00    +0.241 C 
ATOM     35  O   HIS A   3      -6.785  13.694   0.489  0.00  0.00    -0.273 OA
ATOM     36  N   VAL A   4      -7.323  13.252  -1.674  0.00  0.00    -0.297 N 
ATOM     37  H   VAL A   4      -7.687  13.644  -2.566  0.00  0.00    +0.150 HD
BRANCH  34  38
ATOM     38  CA  HIS A   3      -7.935  15.405  -0.721  0.00  0.00    +0.155 C 
BRANCH  38  40
ATOM     39  C   LEU A   2      -9.927  15.875   0.641  0.00  0.00    +0.241 C 
ATOM     40  N   HIS A   3      -8.596  15.775   0.550  0.00  0.00    -0.297 N 
ATOM     41  H   HIS A   3      -8.013  15.961   1.391  0.00  0.00    +0.150 HD
ATOM     42  O   LEU A   2     -10.709  15.656  -0.313  0.00  0.00    -0.273 OA
BRANCH  39  43
ATOM     43  CA  LEU A   2     -10.465  16.293   1.972  0.00  0.00    +0.149 C 
BRANCH  43  46
ATOM     44  C   PHE A   1     -10.741  18.527   2.809  0.00  0.00    +0.239 C 
ATOM     45  O   PHE A   1     -10.526  18.166   3.968  0.00  0.00    -0.274 OA
ATOM     46  N   LEU A   2     -10.795  17.683   1.795  0.00  0.00    -0.297 N 
ATOM     47  H   LEU A   2     -11.080  18.027   0.856  0.00  0.00    +0.150 HD
BRANCH  44  48
ATOM     48  CA  PHE A   1     -10.954  20.007   2.469  0.00  0.00    +0.149 C 
BRANCH  48  49
ATOM     49  N   PHE A   1     -11.476  20.700   3.642  0.00  0.00    -0.238 NA
ATOM     50  H   PHE A   1     -11.232  20.342   4.588  0.00  0.00    +0.142 HD
ENDBRANCH  48  49
BRANCH  48  51
ATOM     51  CB  PHE A   1      -9.623  20.655   1.997  0.00  0.00    +0.053 C 
BRANCH  51  52
ATOM     52  CG  PHE A   1      -8.577  20.766   3.090  0.00  0.00    -0.020 A 
ATOM     53  CD2 PHE A   1      -8.480  21.918   3.870  0.00  0.00    -0.004 A 
ATOM     54  CE2 PHE A   1      -7.505  22.013   4.899  0.00  0.00    -0.000 A 
ATOM     55  CZ  PHE A   1      -6.635  20.951   5.125  0.00  0.00    -0.000 A 
ATOM     56  CE1 PHE A   1      -6.731  19.796   4.340  0.00  0.00    -0.000 A 
ATOM     57  CD1 PHE A   1      -7.691  19.714   3.339  0.00  0.00    -0.004 A 
ENDBRANCH  51  52
ENDBRANCH  48  51
ENDBRANCH  44  48
ENDBRANCH  43  46
BRANCH  43  58
ATOM     58  CB  LEU A   2     -11.697  15.490   2.365  0.00  0.00    +0.029 C 
BRANCH  58  59
ATOM     59  CG  LEU A   2     -11.518  14.080   2.943  0.00  0.00    +0.002 C 
ATOM     60  CD2 LEU A   2     -12.873  13.517   3.444  0.00  0.00    +0.000 C 
ATOM     61  CD1 LEU A   2     -10.804  13.109   1.995  0.00  0.00    +0.000 C 
ENDBRANCH  58  59
ENDBRANCH  43  58
ENDBRANCH  39  43
ENDBRANCH  38  40
BRANCH  38  62
ATOM     62  CB  HIS A   3      -6.885  16.458  -1.095  0.00  0.00    +0.076 C 
BRANCH  62  63
ATOM     63  CG  HIS A   3      -7.472  17.771  -1.503  0.00  0.00    +0.082 A 
ATOM     64  CD2 HIS A   3      -8.744  18.232  -1.469  0.00  0.00    +0.115 A 
ATOM     65  NE2 HIS A   3      -8.730  19.506  -1.977  0.00  0.00    -0.221 NA
ATOM     66  CE1 HIS A   3      -7.491  19.819  -2.317  0.00  0.00    +0.199 A 
ATOM     67  ND1 HIS A   3      -6.710  18.785  -2.046  0.00  0.00    -0.227 NA
ENDBRANCH  62  63
ENDBRANCH  38  62
ENDBRANCH  34  38
ENDBRANCH   1  36
BRANCH   1  68
ATOM     68  CB  VAL A   4      -7.997  10.821  -1.780  0.00  0.00    +0.027 C 
ATOM     69  CG2 VAL A   4      -9.053  10.949  -0.692  0.00  0.00    +0.002 C 
ATOM     70  CG1 VAL A   4      -7.416   9.362  -1.796  0.00  0.00    +0.002 C 
ENDBRANCH   1  68
TORSDOF 26
REMARK  Name = ../refined-set-2016/2q7y/2q7y_pocket.pdb
REMARK  269 active torsions:
REMARK  status: ('A' for Active; 'I' for Inactive)
REMARK    1  A    between atoms: _1  and  _3
REMARK    2  A    between atoms: _3  and  _4
REMARK    3  A    between atoms: _3  and  _6
REMARK    4  A    between atoms: _8  and  _10
REMARK    5  A    between atoms: _10  and  _11
REMARK    6  A    between atoms: _10  and  _13
REMARK    7  A    between atoms: _13  and  _14
REMARK    8  A    between atoms: _14  and  _15
REMARK    9  A    between atoms: _20  and  _22
REMARK   10  A    between atoms: _22  and  _23
REMARK   11  A    between atoms: _22  and  _25
REMARK   12  A    between atoms: _25  and  _26
REMARK   13  A    between atoms: _32  and  _34
REMARK   14  A    between atoms: _34  and  _35
REMARK   15  A    between atoms: _34  and  _37
REMARK   16  A    between atoms: _37  and  _38
REMARK   17  A    between atoms: _40  and  _42
REMARK   18  A    between atoms: _42  and  _43
REMARK   19  A    between atoms: _42  and  _45
REMARK   20  A    between atoms: _45  and  _46
REMARK   21  A    between atoms: _51  and  _53
REMARK   22  A    between atoms: _53  and  _54
REMARK   23  A    between atoms: _53  and  _56
REMARK   24  A    between atoms: _56  and  _57
REMARK   25  A    between atoms: _57  and  _58
REMARK   26  A    between atoms: _60  and  _62
REMARK   27  A    between atoms: _62  and  _63
REMARK   28  A    between atoms: _62  and  _65
REMARK   29  A    between atoms: _65  and  _66
REMARK   30  A    between atoms: _72  and  _74
REMARK   31  A    between atoms: _74  and  _75
REMARK   32  A    between atoms: _74  and  _77
REMARK   33  A    between atoms: _77  and  _78
REMARK   34  A    between atoms: _78  and  _79
REMARK   35  A    between atoms: _84  and  _86
REMARK   36  A    between atoms: _86  and  _87
REMARK   37  A    between atoms: _86  and  _89
REMARK   38  A    between atoms: _92  and  _94
REMARK   39  A    between atoms: _94  and  _95
REMARK   40  A    between atoms: _94  and  _97
REMARK   41  A    between atoms: _97  and  _98
REMARK   42  A    between atoms: _103  and  _104
REMARK   43  A    between atoms: _106  and  _108
REMARK   44  A    between atoms: _108  and  _109
REMARK   45  A    between atoms: _108  and  _111
REMARK   46  A    between atoms: _111  and  _112
REMARK   47  A    between atoms: _112  and  _113
REMARK   48  A    between atoms: _113  and  _114
REMARK   49  A    between atoms: _123  and  _125
REMARK   50  A    between atoms: _125  and  _126
REMARK   51  A    between atoms: _125  and  _128
REMARK   52  A    between atoms: _131  and  _133
REMARK   53  A    between atoms: _133  and  _134
REMARK   54  A    between atoms: _133  and  _136
REMARK   55  A    between atoms: _136  and  _137
REMARK   56  A    between atoms: _139  and  _141
REMARK   57  A    between atoms: _141  and  _142
REMARK   58  A    between atoms: _141  and  _144
REMARK   59  A    between atoms: _144  and  _145
REMARK   60  A    between atoms: _151  and  _153
REMARK   61  A    between atoms: _153  and  _154
REMARK   62  A    between atoms: _153  and  _156
REMARK   63  A    between atoms: _156  and  _157
REMARK   64  A    between atoms: _160  and  _162
REMARK   65  A    between atoms: _162  and  _163
REMARK   66  A    between atoms: _162  and  _165
REMARK   67  A    between atoms: _165  and  _166
REMARK   68  A    between atoms: _166  and  _167
REMARK   69  A    between atoms: _167  and  _168
REMARK   70  A    between atoms: _177  and  _179
REMARK   71  A    between atoms: _179  and  _180
REMARK   72  A    between atoms: _179  and  _182
REMARK   73  A    between atoms: _182  and  _183
REMARK   74  A    between atoms: _186  and  _188
REMARK   75  A    between atoms: _188  and  _189
REMARK   76  A    between atoms: _188  and  _191
REMARK   77  A    between atoms: _191  and  _192
REMARK   78  A    between atoms: _195  and  _197
REMARK   79  A    between atoms: _197  and  _198
REMARK   80  A    between atoms: _197  and  _200
REMARK   81  A    between atoms: _200  and  _201
REMARK   82  A    between atoms: _201  and  _202
REMARK   83  A    between atoms: _207  and  _209
REMARK   84  A    between atoms: _209  and  _210
REMARK   85  A    between atoms: _209  and  _212
REMARK   86  A    between atoms: _212  and  _213
REMARK   87  A    between atoms: _213  and  _214
REMARK   88  A    between atoms: _217  and  _219
REMARK   89  A    between atoms: _219  and  _220
REMARK   90  A    between atoms: _219  and  _222
REMARK   91  A    between atoms: _222  and  _223
REMARK   92  A    between atoms: _226  and  _228
REMARK   93  A    between atoms: _228  and  _229
REMARK   94  A    between atoms: _228  and  _231
REMARK   95  A    between atoms: _234  and  _236
REMARK   96  A    between atoms: _236  and  _237
REMARK   97  A    between atoms: _236  and  _239
REMARK   98  A    between atoms: _239  and  _240
REMARK   99  A    between atoms: _240  and  _241
REMARK  100  A    between atoms: _241  and  _242
REMARK  101  A    between atoms: _242  and  _243
REMARK  102  A    between atoms: _247  and  _249
REMARK  103  A    between atoms: _249  and  _250
REMARK  104  A    between atoms: _249  and  _252
REMARK  105  A    between atoms: _252  and  _253
REMARK  106  A    between atoms: _253  and  _254
REMARK  107  A    between atoms: _256  and  _258
REMARK  108  A    between atoms: _258  and  _259
REMARK  109  A    between atoms: _258  and  _261
REMARK  110  A    between atoms: _261  and  _262
REMARK  111  A    between atoms: _262  and  _263
REMARK  112  A    between atoms: _265  and  _267
REMARK  113  A    between atoms: _267  and  _268
REMARK  114  A    between atoms: _267  and  _270
REMARK  115  A    between atoms: _270  and  _271
REMARK  116  A    between atoms: _273  and  _275
REMARK  117  A    between atoms: _275  and  _276
REMARK  118  A    between atoms: _275  and  _278
REMARK  119  A    between atoms: _278  and  _279
REMARK  120  A    between atoms: _279  and  _280
REMARK  121  A    between atoms: _283  and  _285
REMARK  122  A    between atoms: _285  and  _286
REMARK  123  A    between atoms: _285  and  _288
REMARK  124  A    between atoms: _288  and  _289
REMARK  125  A    between atoms: _292  and  _294
REMARK  126  A    between atoms: _294  and  _295
REMARK  127  A    between atoms: _294  and  _297
REMARK  128  A    between atoms: _297  and  _298
REMARK  129  A    between atoms: _301  and  _303
REMARK  130  A    between atoms: _303  and  _304
REMARK  131  A    between atoms: _303  and  _306
REMARK  132  A    between atoms: _306  and  _307
REMARK  133  A    between atoms: _307  and  _308
REMARK  134  A    between atoms: _311  and  _313
REMARK  135  A    between atoms: _313  and  _314
REMARK  136  A    between atoms: _313  and  _316
REMARK  137  A    between atoms: _316  and  _317
REMARK  138  A    between atoms: _320  and  _322
REMARK  139  A    between atoms: _322  and  _323
REMARK  140  A    between atoms: _322  and  _325
REMARK  141  A    between atoms: _325  and  _326
REMARK  142  A    between atoms: _326  and  _327
REMARK  143  A    between atoms: _332  and  _334
REMARK  144  A    between atoms: _334  and  _335
REMARK  145  A    between atoms: _334  and  _337
REMARK  146  A    between atoms: _337  and  _338
REMARK  147  A    between atoms: _341  and  _343
REMARK  148  A    between atoms: _343  and  _344
REMARK  149  A    between atoms: _343  and  _346
REMARK  150  A    between atoms: _346  and  _347
REMARK  151  A    between atoms: _349  and  _351
REMARK  152  A    between atoms: _351  and  _352
REMARK  153  A    between atoms: _355  and  _357
REMARK  154  A    between atoms: _357  and  _358
REMARK  155  A    between atoms: _357  and  _360
REMARK  156  A    between atoms: _360  and  _361
REMARK  157  A    between atoms: _367  and  _369
REMARK  158  A    between atoms: _369  and  _370
REMARK  159  A    between atoms: _369  and  _372
REMARK  160  A    between atoms: _372  and  _373
REMARK  161  A    between atoms: _376  and  _378
REMARK  162  A    between atoms: _378  and  _379
REMARK  163  A    between atoms: _378  and  _381
REMARK  164  A    between atoms: _381  and  _382
REMARK  165  A    between atoms: _387  and  _389
REMARK  166  A    between atoms: _389  and  _390
REMARK  167  A    between atoms: _389  and  _392
REMARK  168  A    between atoms: _395  and  _397
REMARK  169  A    between atoms: _397  and  _398
REMARK  170  A    between atoms: _401  and  _403
REMARK  171  A    between atoms: _403  and  _404
REMARK  172  A    between atoms: _403  and  _406
REMARK  173  A    between atoms: _406  and  _407
REMARK  174  A    between atoms: _413  and  _415
REMARK  175  A    between atoms: _415  and  _416
REMARK  176  A    between atoms: _415  and  _418
REMARK  177  A    between atoms: _418  and  _419
REMARK  178  A    between atoms: _419  and  _420
REMARK  179  A    between atoms: _425  and  _427
REMARK  180  A    between atoms: _427  and  _428
REMARK  181  A    between atoms: _427  and  _430
REMARK  182  A    between atoms: _430  and  _431
REMARK  183  A    between atoms: _431  and  _432
REMARK  184  A    between atoms: _432  and  _433
REMARK  185  A    between atoms: _433  and  _434
REMARK  186  A    between atoms: _438  and  _440
REMARK  187  A    between atoms: _440  and  _441
REMARK  188  A    between atoms: _440  and  _443
REMARK  189  A    between atoms: _446  and  _448
REMARK  190  A    between atoms: _448  and  _449
REMARK  191  A    between atoms: _448  and  _451
REMARK  192  A    between atoms: _454  and  _456
REMARK  193  A    between atoms: _456  and  _457
REMARK  194  A    between atoms: _456  and  _459
REMARK  195  A    between atoms: _459  and  _460
REMARK  196  A    between atoms: _460  and  _461
REMARK  197  A    between atoms: _461  and  _462
REMARK  198  A    between atoms: _471  and  _473
REMARK  199  A    between atoms: _473  and  _474
REMARK  200  A    between atoms: _473  and  _476
REMARK  201  A    between atoms: _476  and  _477
REMARK  202  A    between atoms: _483  and  _485
REMARK  203  A    between atoms: _485  and  _486
REMARK  204  A    between atoms: _485  and  _488
REMARK  205  A    between atoms: _488  and  _489
REMARK  206  A    between atoms: _499  and  _501
REMARK  207  A    between atoms: _501  and  _502
REMARK  208  A    between atoms: _501  and  _504
REMARK  209  A    between atoms: _504  and  _505
REMARK  210  A    between atoms: _508  and  _510
REMARK  211  A    between atoms: _510  and  _511
REMARK  212  A    between atoms: _510  and  _513
REMARK  213  A    between atoms: _513  and  _514
REMARK  214  A    between atoms: _524  and  _526
REMARK  215  A    between atoms: _526  and  _527
REMARK  216  A    between atoms: _526  and  _529
REMARK  217  A    between atoms: _529  and  _530
REMARK  218  A    between atoms: _534  and  _535
REMARK  219  A    between atoms: _540  and  _542
REMARK  220  A    between atoms: _542  and  _543
REMARK  221  A    between atoms: _542  and  _545
REMARK  222  A    between atoms: _545  and  _546
REMARK  223  A    between atoms: _549  and  _551
REMARK  224  A    between atoms: _551  and  _552
REMARK  225  A    between atoms: _551  and  _554
REMARK  226  A    between atoms: _554  and  _555
REMARK  227  A    between atoms: _558  and  _560
REMARK  228  A    between atoms: _560  and  _561
REMARK  229  A    between atoms: _564  and  _566
REMARK  230  A    between atoms: _566  and  _567
REMARK  231  A    between atoms: _566  and  _569
REMARK  232  A    between atoms: _569  and  _570
REMARK  233  A    between atoms: _573  and  _575
REMARK  234  A    between atoms: _575  and  _576
REMARK  235  A    between atoms: _575  and  _578
REMARK  236  A    between atoms: _578  and  _579
REMARK  237  A    between atoms: _579  and  _580
REMARK  238  A    between atoms: _585  and  _587
REMARK  239  A    between atoms: _587  and  _588
REMARK  240  A    between atoms: _590  and  _592
REMARK  241  A    between atoms: _592  and  _593
REMARK  242  A    between atoms: _592  and  _595
REMARK  243  A    between atoms: _595  and  _596
REMARK  244  A    between atoms: _599  and  _601
REMARK  245  A    between atoms: _601  and  _602
REMARK  246  A    between atoms: _601  and  _604
REMARK  247  A    between atoms: _604  and  _605
REMARK  248  A    between atoms: _607  and  _609
REMARK  249  A    between atoms: _609  and  _610
REMARK  250  A    between atoms: _613  and  _615
REMARK  251  A    between atoms: _615  and  _616
REMARK  252  A    between atoms: _615  and  _618
REMARK  253  A    between atoms: _618  and  _619
REMARK  254  A    between atoms: _622  and  _624
REMARK  255  A    between atoms: _624  and  _625
REMARK  256  A    between atoms: _624  and  _627
REMARK  257  A    between atoms: _630  and  _632
REMARK  258  A    between atoms: _632  and  _633
REMARK  259  A    between atoms: _632  and  _635
REMARK  260  A    between atoms: _635  and  _636
REMARK  261  A    between atoms: _636  and  _637
REMARK  262  A    between atoms: _642  and  _644
REMARK  263  A    between atoms: _644  and  _645
REMARK  264  A    between atoms: _644  and  _647
REMARK  265  A    between atoms: _647  and  _648
REMARK  266  A    between atoms: _651  and  _653
REMARK  267  A    between atoms: _653  and  _654
REMARK  268  A    between atoms: _653  and  _656
REMARK  269  A    between atoms: _656  and  _657
REMARK                            x       y       z     vdW  Elec       q    Type
REMARK                         _______ _______ _______ _____ _____    ______ ____
ROOT
ATOM      1  CG  LYS A   1       0.255  10.371  -9.237  0.00  0.00    -0.000 C 
ENDROOT
BRANCH   1   2
ATOM      2  CB  LYS A   1      -0.967  11.081  -8.687  0.00  0.00    +0.025 C 
BRANCH   2   3
ATOM      3  CA  LYS A   1      -0.834  11.653  -7.270  0.00  0.00    +0.133 C 
BRANCH   3   4
ATOM      4  N   LYS A   1      -0.159  10.715  -6.361  0.00  0.00    -0.239 NA
ATOM      5  H   LYS A   1      -0.564   9.768  -6.220  0.00  0.00    +0.142 HD
ENDBRANCH   3   4
BRANCH   3   6
ATOM      6  C   LYS A   1      -2.229  11.958  -6.759  0.00  0.00    +0.224 C 
ATOM      7  O   LYS A   1      -3.016  11.059  -6.470  0.00  0.00    -0.287 OA
ENDBRANCH   3   6
ENDBRANCH   2   3
ENDBRANCH   1   2
BRANCH   1   8
ATOM      8  CD  LYS A   1       1.374  11.283  -9.674  0.00  0.00    -0.024 C 
BRANCH   8   9
ATOM      9  CE  LYS A   1       2.589  10.432 -10.010  0.00  0.00    -0.086 C 
BRANCH   9  10
ATOM     10  NZ  LYS A   1       3.772  11.278 -10.365  0.00  0.00    +0.380 N 
ATOM     11  HZ1 LYS A   1       4.012  11.891  -9.560  0.00  0.00    -0.089 HD
ATOM     12  HZ2 LYS A   1       4.581  10.664 -10.588  0.00  0.00    -0.089 HD
ATOM     13  HZ3 LYS A   1       3.542  11.864 -11.193  0.00  0.00    -0.089 HD
ENDBRANCH   9  10
ENDBRANCH   8   9
ENDBRANCH   1   8
TORSDOF 7
REMARK  Name = ../refined-set-2016/2q7y/2q7y_pocket.pdb
REMARK  269 active torsions:
REMARK  status: ('A' for Active; 'I' for Inactive)
REMARK    1  A    between atoms: _1  and  _3
REMARK    2  A    between atoms: _3  and  _4
REMARK    3  A    between atoms: _3  and  _6
REMARK    4  A    between atoms: _8  and  _10
REMARK    5  A    between atoms: _10  and  _11
REMARK    6  A    between atoms: _10  and  _13
REMARK    7  A    between atoms: _13  and  _14
REMARK    8  A    between atoms: _14  and  _15
REMARK    9  A    between atoms: _20  and  _22
REMARK   10  A    between atoms: _22  and  _23
REMARK   11  A    between atoms: _22  and  _25
REMARK   12  A    between atoms: _25  and  _26
REMARK   13  A    between atoms: _32  and  _34
REMARK   14  A    between atoms: _34  and  _35
REMARK   15  A    between atoms: _34  and  _37
REMARK   16  A    between atoms: _37  and  _38
REMARK   17  A    between atoms: _40  and  _42
REMARK   18  A    between atoms: _42  and  _43
REMARK   19  A    between atoms: _42  and  _45
REMARK   20  A    between atoms: _45  and  _46
REMARK   21  A    between atoms: _51  and  _53
REMARK   22  A    between atoms: _53  and  _54
REMARK   23  A    between atoms: _53  and  _56
REMARK   24  A    between atoms: _56  and  _57
REMARK   25  A    between atoms: _57  and  _58
REMARK   26  A    between atoms: _60  and  _62
REMARK   27  A    between atoms: _62  and  _63
REMARK   28  A    between atoms: _62  and  _65
REMARK   29  A    between atoms: _65  and  _66
REMARK   30  A    between atoms: _72  and  _74
REMARK   31  A    between atoms: _74  and  _75
REMARK   32  A    between atoms: _74  and  _77
REMARK   33  A    between atoms: _77  and  _78
REMARK   34  A    between atoms: _78  and  _79
REMARK   35  A    between atoms: _84  and  _86
REMARK   36  A    between atoms: _86  and  _87
REMARK   37  A    between atoms: _86  and  _89
REMARK   38  A    between atoms: _92  and  _94
REMARK   39  A    between atoms: _94  and  _95
REMARK   40  A    between atoms: _94  and  _97
REMARK   41  A    between atoms: _97  and  _98
REMARK   42  A    between atoms: _103  and  _104
REMARK   43  A    between atoms: _106  and  _108
REMARK   44  A    between atoms: _108  and  _109
REMARK   45  A    between atoms: _108  and  _111
REMARK   46  A    between atoms: _111  and  _112
REMARK   47  A    between atoms: _112  and  _113
REMARK   48  A    between atoms: _113  and  _114
REMARK   49  A    between atoms: _123  and  _125
REMARK   50  A    between atoms: _125  and  _126
REMARK   51  A    between atoms: _125  and  _128
REMARK   52  A    between atoms: _131  and  _133
REMARK   53  A    between atoms: _133  and  _134
REMARK   54  A    between atoms: _133  and  _136
REMARK   55  A    between atoms: _136  and  _137
REMARK   56  A    between atoms: _139  and  _141
REMARK   57  A    between atoms: _141  and  _142
REMARK   58  A    between atoms: _141  and  _144
REMARK   59  A    between atoms: _144  and  _145
REMARK   60  A    between atoms: _151  and  _153
REMARK   61  A    between atoms: _153  and  _154
REMARK   62  A    between atoms: _153  and  _156
REMARK   63  A    between atoms: _156  and  _157
REMARK   64  A    between atoms: _160  and  _162
REMARK   65  A    between atoms: _162  and  _163
REMARK   66  A    between atoms: _162  and  _165
REMARK   67  A    between atoms: _165  and  _166
REMARK   68  A    between atoms: _166  and  _167
REMARK   69  A    between atoms: _167  and  _168
REMARK   70  A    between atoms: _177  and  _179
REMARK   71  A    between atoms: _179  and  _180
REMARK   72  A    between atoms: _179  and  _182
REMARK   73  A    between atoms: _182  and  _183
REMARK   74  A    between atoms: _186  and  _188
REMARK   75  A    between atoms: _188  and  _189
REMARK   76  A    between atoms: _188  and  _191
REMARK   77  A    between atoms: _191  and  _192
REMARK   78  A    between atoms: _195  and  _197
REMARK   79  A    between atoms: _197  and  _198
REMARK   80  A    between atoms: _197  and  _200
REMARK   81  A    between atoms: _200  and  _201
REMARK   82  A    between atoms: _201  and  _202
REMARK   83  A    between atoms: _207  and  _209
REMARK   84  A    between atoms: _209  and  _210
REMARK   85  A    between atoms: _209  and  _212
REMARK   86  A    between atoms: _212  and  _213
REMARK   87  A    between atoms: _213  and  _214
REMARK   88  A    between atoms: _217  and  _219
REMARK   89  A    between atoms: _219  and  _220
REMARK   90  A    between atoms: _219  and  _222
REMARK   91  A    between atoms: _222  and  _223
REMARK   92  A    between atoms: _226  and  _228
REMARK   93  A    between atoms: _228  and  _229
REMARK   94  A    between atoms: _228  and  _231
REMARK   95  A    between atoms: _234  and  _236
REMARK   96  A    between atoms: _236  and  _237
REMARK   97  A    between atoms: _236  and  _239
REMARK   98  A    between atoms: _239  and  _240
REMARK   99  A    between atoms: _240  and  _241
REMARK  100  A    between atoms: _241  and  _242
REMARK  101  A    between atoms: _242  and  _243
REMARK  102  A    between atoms: _247  and  _249
REMARK  103  A    between atoms: _249  and  _250
REMARK  104  A    between atoms: _249  and  _252
REMARK  105  A    between atoms: _252  and  _253
REMARK  106  A    between atoms: _253  and  _254
REMARK  107  A    between atoms: _256  and  _258
REMARK  108  A    between atoms: _258  and  _259
REMARK  109  A    between atoms: _258  and  _261
REMARK  110  A    between atoms: _261  and  _262
REMARK  111  A    between atoms: _262  and  _263
REMARK  112  A    between atoms: _265  and  _267
REMARK  113  A    between atoms: _267  and  _268
REMARK  114  A    between atoms: _267  and  _270
REMARK  115  A    between atoms: _270  and  _271
REMARK  116  A    between atoms: _273  and  _275
REMARK  117  A    between atoms: _275  and  _276
REMARK  118  A    between atoms: _275  and  _278
REMARK  119  A    between atoms: _278  and  _279
REMARK  120  A    between atoms: _279  and  _280
REMARK  121  A    between atoms: _283  and  _285
REMARK  122  A    between atoms: _285  and  _286
REMARK  123  A    between atoms: _285  and  _288
REMARK  124  A    between atoms: _288  and  _289
REMARK  125  A    between atoms: _292  and  _294
REMARK  126  A    between atoms: _294  and  _295
REMARK  127  A    between atoms: _294  and  _297
REMARK  128  A    between atoms: _297  and  _298
REMARK  129  A    between atoms: _301  and  _303
REMARK  130  A    between atoms: _303  and  _304
REMARK  131  A    between atoms: _303  and  _306
REMARK  132  A    between atoms: _306  and  _307
REMARK  133  A    between atoms: _307  and  _308
REMARK  134  A    between atoms: _311  and  _313
REMARK  135  A    between atoms: _313  and  _314
REMARK  136  A    between atoms: _313  and  _316
REMARK  137  A    between atoms: _316  and  _317
REMARK  138  A    between atoms: _320  and  _322
REMARK  139  A    between atoms: _322  and  _323
REMARK  140  A    between atoms: _322  and  _325
REMARK  141  A    between atoms: _325  and  _326
REMARK  142  A    between atoms: _326  and  _327
REMARK  143  A    between atoms: _332  and  _334
REMARK  144  A    between atoms: _334  and  _335
REMARK  145  A    between atoms: _334  and  _337
REMARK  146  A    between atoms: _337  and  _338
REMARK  147  A    between atoms: _341  and  _343
REMARK  148  A    between atoms: _343  and  _344
REMARK  149  A    between atoms: _343  and  _346
REMARK  150  A    between atoms: _346  and  _347
REMARK  151  A    between atoms: _349  and  _351
REMARK  152  A    between atoms: _351  and  _352
REMARK  153  A    between atoms: _355  and  _357
REMARK  154  A    between atoms: _357  and  _358
REMARK  155  A    between atoms: _357  and  _360
REMARK  156  A    between atoms: _360  and  _361
REMARK  157  A    between atoms: _367  and  _369
REMARK  158  A    between atoms: _369  and  _370
REMARK  159  A    between atoms: _369  and  _372
REMARK  160  A    between atoms: _372  and  _373
REMARK  161  A    between atoms: _376  and  _378
REMARK  162  A    between atoms: _378  and  _379
REMARK  163  A    between atoms: _378  and  _381
REMARK  164  A    between atoms: _381  and  _382
REMARK  165  A    between atoms: _387  and  _389
REMARK  166  A    between atoms: _389  and  _390
REMARK  167  A    between atoms: _389  and  _392
REMARK  168  A    between atoms: _395  and  _397
REMARK  169  A    between atoms: _397  and  _398
REMARK  170  A    between atoms: _401  and  _403
REMARK  171  A    between atoms: _403  and  _404
REMARK  172  A    between atoms: _403  and  _406
REMARK  173  A    between atoms: _406  and  _407
REMARK  174  A    between atoms: _413  and  _415
REMARK  175  A    between atoms: _415  and  _416
REMARK  176  A    between atoms: _415  and  _418
REMARK  177  A    between atoms: _418  and  _419
REMARK  178  A    between atoms: _419  and  _420
REMARK  179  A    between atoms: _425  and  _427
REMARK  180  A    between atoms: _427  and  _428
REMARK  181  A    between atoms: _427  and  _430
REMARK  182  A    between atoms: _430  and  _431
REMARK  183  A    between atoms: _431  and  _432
REMARK  184  A    between atoms: _432  and  _433
REMARK  185  A    between atoms: _433  and  _434
REMARK  186  A    between atoms: _438  and  _440
REMARK  187  A    between atoms: _440  and  _441
REMARK  188  A    between atoms: _440  and  _443
REMARK  189  A    between atoms: _446  and  _448
REMARK  190  A    between atoms: _448  and  _449
REMARK  191  A    between atoms: _448  and  _451
REMARK  192  A    between atoms: _454  and  _456
REMARK  193  A    between atoms: _456  and  _457
REMARK  194  A    between atoms: _456  and  _459
REMARK  195  A    between atoms: _459  and  _460
REMARK  196  A    between atoms: _460  and  _461
REMARK  197  A    between atoms: _461  and  _462
REMARK  198  A    between atoms: _471  and  _473
REMARK  199  A    between atoms: _473  and  _474
REMARK  200  A    between atoms: _473  and  _476
REMARK  201  A    between atoms: _476  and  _477
REMARK  202  A    between atoms: _483  and  _485
REMARK  203  A    between atoms: _485  and  _486
REMARK  204  A    between atoms: _485  and  _488
REMARK  205  A    between atoms: _488  and  _489
REMARK  206  A    between atoms: _499  and  _501
REMARK  207  A    between atoms: _501  and  _502
REMARK  208  A    between atoms: _501  and  _504
REMARK  209  A    between atoms: _504  and  _505
REMARK  210  A    between atoms: _508  and  _510
REMARK  211  A    between atoms: _510  and  _511
REMARK  212  A    between atoms: _510  and  _513
REMARK  213  A    between atoms: _513  and  _514
REMARK  214  A    between atoms: _524  and  _526
REMARK  215  A    between atoms: _526  and  _527
REMARK  216  A    between atoms: _526  and  _529
REMARK  217  A    between atoms: _529  and  _530
REMARK  218  A    between atoms: _534  and  _535
REMARK  219  A    between atoms: _540  and  _542
REMARK  220  A    between atoms: _542  and  _543
REMARK  221  A    between atoms: _542  and  _545
REMARK  222  A    between atoms: _545  and  _546
REMARK  223  A    between atoms: _549  and  _551
REMARK  224  A    between atoms: _551  and  _552
REMARK  225  A    between atoms: _551  and  _554
REMARK  226  A    between atoms: _554  and  _555
REMARK  227  A    between atoms: _558  and  _560
REMARK  228  A    between atoms: _560  and  _561
REMARK  229  A    between atoms: _564  and  _566
REMARK  230  A    between atoms: _566  and  _567
REMARK  231  A    between atoms: _566  and  _569
REMARK  232  A    between atoms: _569  and  _570
REMARK  233  A    between atoms: _573  and  _575
REMARK  234  A    between atoms: _575  and  _576
REMARK  235  A    between atoms: _575  and  _578
REMARK  236  A    between atoms: _578  and  _579
REMARK  237  A    between atoms: _579  and  _580
REMARK  238  A    between atoms: _585  and  _587
REMARK  239  A    between atoms: _587  and  _588
REMARK  240  A    between atoms: _590  and  _592
REMARK  241  A    between atoms: _592  and  _593
REMARK  242  A    between atoms: _592  and  _595
REMARK  243  A    between atoms: _595  and  _596
REMARK  244  A    between atoms: _599  and  _601
REMARK  245  A    between atoms: _601  and  _602
REMARK  246  A    between atoms: _601  and  _604
REMARK  247  A    between atoms: _604  and  _605
REMARK  248  A    between atoms: _607  and  _609
REMARK  249  A    between atoms: _609  and  _610
REMARK  250  A    between atoms: _613  and  _615
REMARK  251  A    between atoms: _615  and  _616
REMARK  252  A    between atoms: _615  and  _618
REMARK  253  A    between atoms: _618  and  _619
REMARK  254  A    between atoms: _622  and  _624
REMARK  255  A    between atoms: _624  and  _625
REMARK  256  A    between atoms: _624  and  _627
REMARK  257  A    between atoms: _630  and  _632
REMARK  258  A    between atoms: _632  and  _633
REMARK  259  A    between atoms: _632  and  _635
REMARK  260  A    between atoms: _635  and  _636
REMARK  261  A    between atoms: _636  and  _637
REMARK  262  A    between atoms: _642  and  _644
REMARK  263  A    between atoms: _644  and  _645
REMARK  264  A    between atoms: _644  and  _647
REMARK  265  A    between atoms: _647  and  _648
REMARK  266  A    between atoms: _651  and  _653
REMARK  267  A    between atoms: _653  and  _654
REMARK  268  A    between atoms: _653  and  _656
REMARK  269  A    between atoms: _656  and  _657
REMARK                            x       y       z     vdW  Elec       q    Type
REMARK                         _______ _______ _______ _____ _____    ______ ____
ROOT
ATOM      1  CA  ARG A   3     -11.584  14.902  -3.281  0.00  0.00    +0.149 C 
ENDROOT
BRANCH   1   4
ATOM      2  C   VAL A   2     -10.129  13.388  -4.524  0.00  0.00    +0.241 C 
ATOM      3  O   VAL A   2      -9.173  13.575  -3.775  0.00  0.00    -0.273 OA
ATOM      4  N   ARG A   3     -11.276  14.047  -4.427  0.00  0.00    -0.297 N 
ATOM      5  H   ARG A   3     -11.978  13.953  -5.189  0.00  0.00    +0.150 HD
BRANCH   2   6
ATOM      6  CA  VAL A   2     -10.014  12.370  -5.634  0.00  0.00    +0.148 C 
BRANCH   6   8
ATOM      7  C   VAL A   1      -8.333  12.130  -7.390  0.00  0.00    +0.238 C 
ATOM      8  N   VAL A   2      -8.627  12.378  -6.112  0.00  0.00    -0.297 N 
ATOM      9  H   VAL A   2      -7.858  12.581  -5.442  0.00  0.00    +0.150 HD
ATOM     10  O   VAL A   1      -9.188  12.044  -8.252  0.00  0.00    -0.274 OA
BRANCH   7  11
ATOM     11  CA  VAL A   1      -6.873  11.939  -7.764  0.00  0.00    +0.145 C 
BRANCH  11  12
ATOM     12  CB  VAL A   1      -6.640  10.415  -8.031  0.00  0.00    +0.025 C 
ATOM     13  CG2 VAL A   1      -6.623   9.628  -6.736  0.00  0.00    +0.002 C 
ATOM     14  CG1 VAL A   1      -5.366  10.168  -8.863  0.00  0.00    +0.002 C 
ENDBRANCH  11  12
BRANCH  11  15
ATOM     15  N   VAL A   1      -5.880  12.510  -6.843  0.00  0.00    -0.238 NA
ATOM     16  H   VAL A   1      -5.970  12.325  -5.824  0.00  0.00    +0.142 HD
ENDBRANCH  11  15
ENDBRANCH   7  11
ENDBRANCH   6   8
BRANCH   6  17
ATOM     17  CB  VAL A   2     -10.389  10.940  -5.101  0.00  0.00    +0.027 C 
ATOM     18  CG2 VAL A   2     -11.706  10.913  -4.314  0.00  0.00    +0.002 C 
ATOM     19  CG1 VAL A   2     -10.501   9.969  -6.277  0.00  0.00    +0.002 C 
ENDBRANCH   6  17
ENDBRANCH   2   6
ENDBRANCH   1   4
BRANCH   1  20
ATOM     20  C   ARG A   3     -13.010  14.644  -2.870  0.00  0.00    +0.241 C 
ATOM     21  N   PHE A   4     -13.350  14.981  -1.633  0.00  0.00    -0.298 N 
ATOM     22  H   PHE A   4     -12.614  15.174  -0.924  0.00  0.00    +0.150 HD
ATOM     23  O   ARG A   3     -13.805  14.136  -3.656  0.00  0.00    -0.273 OA
BRANCH  21  24
ATOM     24  CA  PHE A   4     -14.743  15.079  -1.274  0.00  0.00    +0.141 C 
BRANCH  24  25
ATOM     25  C   PHE A   4     -15.095  16.551  -1.482  0.00  0.00    +0.227 C 
ATOM     26  O   PHE A   4     -14.370  17.447  -1.043  0.00  0.00    -0.286 OA
ENDBRANCH  24  25
BRANCH  24  27
ATOM     27  CB  PHE A   4     -14.987  14.680   0.187  0.00  0.00    +0.054 C 
BRANCH  27  28
ATOM     28  CG  PHE A   4     -16.435  14.556   0.517  0.00  0.00    -0.020 A 
ATOM     29  CD2 PHE A   4     -17.176  15.668   0.891  0.00  0.00    -0.004 A 
ATOM     30  CE2 PHE A   4     -18.537  15.546   1.189  0.00  0.00    -0.000 A 
ATOM     31  CZ  PHE A   4     -19.153  14.290   1.121  0.00  0.00    -0.000 A 
ATOM     32  CE1 PHE A   4     -18.421  13.160   0.746  0.00  0.00    -0.000 A 
ATOM     33  CD1 PHE A   4     -17.062  13.308   0.448  0.00  0.00    -0.004 A 
ENDBRANCH  27  28
ENDBRANCH  24  27
ENDBRANCH  21  24
ENDBRANCH   1  20
BRANCH   1  34
ATOM     34  CB  ARG A   3     -11.409  16.391  -3.616  0.00  0.00    +0.033 C 
BRANCH  34  35
ATOM     35  CG  ARG A   3     -12.350  16.923  -4.713  0.00  0.00    +0.045 C 
BRANCH  35  36
ATOM     36  CD  ARG A   3     -12.185  18.462  -4.889  0.00  0.00    +0.174 C 
BRANCH  36  37
ATOM     37  NE  ARG A   3     -13.023  18.984  -5.969  0.00  0.00    -0.265 N 
ATOM     38  CZ  ARG A   3     -13.135  20.275  -6.283  0.00  0.00    +0.342 C 
ATOM     39  NH2 ARG A   3     -12.467  21.207  -5.603  0.00  0.00    -0.292 N 
ATOM     40 HH21 ARG A   3     -11.847  20.931  -4.815  0.00  0.00    +0.255 HD
ATOM     41 HH22 ARG A   3     -12.566  22.210  -5.861  0.00  0.00    +0.255 HD
ATOM     42  NH1 ARG A   3     -13.916  20.633  -7.273  0.00  0.00    -0.292 N 
ATOM     43 HH11 ARG A   3     -14.009  21.638  -7.525  0.00  0.00    +0.255 HD
ATOM     44 HH12 ARG A   3     -14.442  19.912  -7.807  0.00  0.00    +0.255 HD
ATOM     45  HE  ARG A   3     -13.569  18.300  -6.531  0.00  0.00    +0.259 HD
ENDBRANCH  36  37
ENDBRANCH  35  36
ENDBRANCH  34  35
ENDBRANCH   1  34
TORSDOF 16
REMARK  Name = ../refined-set-2016/2q7y/2q7y_pocket.pdb
REMARK  269 active torsions:
REMARK  status: ('A' for Active; 'I' for Inactive)
REMARK    1  A    between atoms: _1  and  _3
REMARK    2  A    between atoms: _3  and  _4
REMARK    3  A    between atoms: _3  and  _6
REMARK    4  A    between atoms: _8  and  _10
REMARK    5  A    between atoms: _10  and  _11
REMARK    6  A    between atoms: _10  and  _13
REMARK    7  A    between atoms: _13  and  _14
REMARK    8  A    between atoms: _14  and  _15
REMARK    9  A    between atoms: _20  and  _22
REMARK   10  A    between atoms: _22  and  _23
REMARK   11  A    between atoms: _22  and  _25
REMARK   12  A    between atoms: _25  and  _26
REMARK   13  A    between atoms: _32  and  _34
REMARK   14  A    between atoms: _34  and  _35
REMARK   15  A    between atoms: _34  and  _37
REMARK   16  A    between atoms: _37  and  _38
REMARK   17  A    between atoms: _40  and  _42
REMARK   18  A    between atoms: _42  and  _43
REMARK   19  A    between atoms: _42  and  _45
REMARK   20  A    between atoms: _45  and  _46
REMARK   21  A    between atoms: _51  and  _53
REMARK   22  A    between atoms: _53  and  _54
REMARK   23  A    between atoms: _53  and  _56
REMARK   24  A    between atoms: _56  and  _57
REMARK   25  A    between atoms: _57  and  _58
REMARK   26  A    between atoms: _60  and  _62
REMARK   27  A    between atoms: _62  and  _63
REMARK   28  A    between atoms: _62  and  _65
REMARK   29  A    between atoms: _65  and  _66
REMARK   30  A    between atoms: _72  and  _74
REMARK   31  A    between atoms: _74  and  _75
REMARK   32  A    between atoms: _74  and  _77
REMARK   33  A    between atoms: _77  and  _78
REMARK   34  A    between atoms: _78  and  _79
REMARK   35  A    between atoms: _84  and  _86
REMARK   36  A    between atoms: _86  and  _87
REMARK   37  A    between atoms: _86  and  _89
REMARK   38  A    between atoms: _92  and  _94
REMARK   39  A    between atoms: _94  and  _95
REMARK   40  A    between atoms: _94  and  _97
REMARK   41  A    between atoms: _97  and  _98
REMARK   42  A    between atoms: _103  and  _104
REMARK   43  A    between atoms: _106  and  _108
REMARK   44  A    between atoms: _108  and  _109
REMARK   45  A    between atoms: _108  and  _111
REMARK   46  A    between atoms: _111  and  _112
REMARK   47  A    between atoms: _112  and  _113
REMARK   48  A    between atoms: _113  and  _114
REMARK   49  A    between atoms: _123  and  _125
REMARK   50  A    between atoms: _125  and  _126
REMARK   51  A    between atoms: _125  and  _128
REMARK   52  A    between atoms: _131  and  _133
REMARK   53  A    between atoms: _133  and  _134
REMARK   54  A    between atoms: _133  and  _136
REMARK   55  A    between atoms: _136  and  _137
REMARK   56  A    between atoms: _139  and  _141
REMARK   57  A    between atoms: _141  and  _142
REMARK   58  A    between atoms: _141  and  _144
REMARK   59  A    between atoms: _144  and  _145
REMARK   60  A    between atoms: _151  and  _153
REMARK   61  A    between atoms: _153  and  _154
REMARK   62  A    between atoms: _153  and  _156
REMARK   63  A    between atoms: _156  and  _157
REMARK   64  A    between atoms: _160  and  _162
REMARK   65  A    between atoms: _162  and  _163
REMARK   66  A    between atoms: _162  and  _165
REMARK   67  A    between atoms: _165  and  _166
REMARK   68  A    between atoms: _166  and  _167
REMARK   69  A    between atoms: _167  and  _168
REMARK   70  A    between atoms: _177  and  _179
REMARK   71  A    between atoms: _179  and  _180
REMARK   72  A    between atoms: _179  and  _182
REMARK   73  A    between atoms: _182  and  _183
REMARK   74  A    between atoms: _186  and  _188
REMARK   75  A    between atoms: _188  and  _189
REMARK   76  A    between atoms: _188  and  _191
REMARK   77  A    between atoms: _191  and  _192
REMARK   78  A    between atoms: _195  and  _197
REMARK   79  A    between atoms: _197  and  _198
REMARK   80  A    between atoms: _197  and  _200
REMARK   81  A    between atoms: _200  and  _201
REMARK   82  A    between atoms: _201  and  _202
REMARK   83  A    between atoms: _207  and  _209
REMARK   84  A    between atoms: _209  and  _210
REMARK   85  A    between atoms: _209  and  _212
REMARK   86  A    between atoms: _212  and  _213
REMARK   87  A    between atoms: _213  and  _214
REMARK   88  A    between atoms: _217  and  _219
REMARK   89  A    between atoms: _219  and  _220
REMARK   90  A    between atoms: _219  and  _222
REMARK   91  A    between atoms: _222  and  _223
REMARK   92  A    between atoms: _226  and  _228
REMARK   93  A    between atoms: _228  and  _229
REMARK   94  A    between atoms: _228  and  _231
REMARK   95  A    between atoms: _234  and  _236
REMARK   96  A    between atoms: _236  and  _237
REMARK   97  A    between atoms: _236  and  _239
REMARK   98  A    between atoms: _239  and  _240
REMARK   99  A    between atoms: _240  and  _241
REMARK  100  A    between atoms: _241  and  _242
REMARK  101  A    between atoms: _242  and  _243
REMARK  102  A    between atoms: _247  and  _249
REMARK  103  A    between atoms: _249  and  _250
REMARK  104  A    between atoms: _249  and  _252
REMARK  105  A    between atoms: _252  and  _253
REMARK  106  A    between atoms: _253  and  _254
REMARK  107  A    between atoms: _256  and  _258
REMARK  108  A    between atoms: _258  and  _259
REMARK  109  A    between atoms: _258  and  _261
REMARK  110  A    between atoms: _261  and  _262
REMARK  111  A    between atoms: _262  and  _263
REMARK  112  A    between atoms: _265  and  _267
REMARK  113  A    between atoms: _267  and  _268
REMARK  114  A    between atoms: _267  and  _270
REMARK  115  A    between atoms: _270  and  _271
REMARK  116  A    between atoms: _273  and  _275
REMARK  117  A    between atoms: _275  and  _276
REMARK  118  A    between atoms: _275  and  _278
REMARK  119  A    between atoms: _278  and  _279
REMARK  120  A    between atoms: _279  and  _280
REMARK  121  A    between atoms: _283  and  _285
REMARK  122  A    between atoms: _285  and  _286
REMARK  123  A    between atoms: _285  and  _288
REMARK  124  A    between atoms: _288  and  _289
REMARK  125  A    between atoms: _292  and  _294
REMARK  126  A    between atoms: _294  and  _295
REMARK  127  A    between atoms: _294  and  _297
REMARK  128  A    between atoms: _297  and  _298
REMARK  129  A    between atoms: _301  and  _303
REMARK  130  A    between atoms: _303  and  _304
REMARK  131  A    between atoms: _303  and  _306
REMARK  132  A    between atoms: _306  and  _307
REMARK  133  A    between atoms: _307  and  _308
REMARK  134  A    between atoms: _311  and  _313
REMARK  135  A    between atoms: _313  and  _314
REMARK  136  A    between atoms: _313  and  _316
REMARK  137  A    between atoms: _316  and  _317
REMARK  138  A    between atoms: _320  and  _322
REMARK  139  A    between atoms: _322  and  _323
REMARK  140  A    between atoms: _322  and  _325
REMARK  141  A    between atoms: _325  and  _326
REMARK  142  A    between atoms: _326  and  _327
REMARK  143  A    between atoms: _332  and  _334
REMARK  144  A    between atoms: _334  and  _335
REMARK  145  A    between atoms: _334  and  _337
REMARK  146  A    between atoms: _337  and  _338
REMARK  147  A    between atoms: _341  and  _343
REMARK  148  A    between atoms: _343  and  _344
REMARK  149  A    between atoms: _343  and  _346
REMARK  150  A    between atoms: _346  and  _347
REMARK  151  A    between atoms: _349  and  _351
REMARK  152  A    between atoms: _351  and  _352
REMARK  153  A    between atoms: _355  and  _357
REMARK  154  A    between atoms: _357  and  _358
REMARK  155  A    between atoms: _357  and  _360
REMARK  156  A    between atoms: _360  and  _361
REMARK  157  A    between atoms: _367  and  _369
REMARK  158  A    between atoms: _369  and  _370
REMARK  159  A    between atoms: _369  and  _372
REMARK  160  A    between atoms: _372  and  _373
REMARK  161  A    between atoms: _376  and  _378
REMARK  162  A    between atoms: _378  and  _379
REMARK  163  A    between atoms: _378  and  _381
REMARK  164  A    between atoms: _381  and  _382
REMARK  165  A    between atoms: _387  and  _389
REMARK  166  A    between atoms: _389  and  _390
REMARK  167  A    between atoms: _389  and  _392
REMARK  168  A    between atoms: _395  and  _397
REMARK  169  A    between atoms: _397  and  _398
REMARK  170  A    between atoms: _401  and  _403
REMARK  171  A    between atoms: _403  and  _404
REMARK  172  A    between atoms: _403  and  _406
REMARK  173  A    between atoms: _406  and  _407
REMARK  174  A    between atoms: _413  and  _415
REMARK  175  A    between atoms: _415  and  _416
REMARK  176  A    between atoms: _415  and  _418
REMARK  177  A    between atoms: _418  and  _419
REMARK  178  A    between atoms: _419  and  _420
REMARK  179  A    between atoms: _425  and  _427
REMARK  180  A    between atoms: _427  and  _428
REMARK  181  A    between atoms: _427  and  _430
REMARK  182  A    between atoms: _430  and  _431
REMARK  183  A    between atoms: _431  and  _432
REMARK  184  A    between atoms: _432  and  _433
REMARK  185  A    between atoms: _433  and  _434
REMARK  186  A    between atoms: _438  and  _440
REMARK  187  A    between atoms: _440  and  _441
REMARK  188  A    between atoms: _440  and  _443
REMARK  189  A    between atoms: _446  and  _448
REMARK  190  A    between atoms: _448  and  _449
REMARK  191  A    between atoms: _448  and  _451
REMARK  192  A    between atoms: _454  and  _456
REMARK  193  A    between atoms: _456  and  _457
REMARK  194  A    between atoms: _456  and  _459
REMARK  195  A    between atoms: _459  and  _460
REMARK  196  A    between atoms: _460  and  _461
REMARK  197  A    between atoms: _461  and  _462
REMARK  198  A    between atoms: _471  and  _473
REMARK  199  A    between atoms: _473  and  _474
REMARK  200  A    between atoms: _473  and  _476
REMARK  201  A    between atoms: _476  and  _477
REMARK  202  A    between atoms: _483  and  _485
REMARK  203  A    between atoms: _485  and  _486
REMARK  204  A    between atoms: _485  and  _488
REMARK  205  A    between atoms: _488  and  _489
REMARK  206  A    between atoms: _499  and  _501
REMARK  207  A    between atoms: _501  and  _502
REMARK  208  A    between atoms: _501  and  _504
REMARK  209  A    between atoms: _504  and  _505
REMARK  210  A    between atoms: _508  and  _510
REMARK  211  A    between atoms: _510  and  _511
REMARK  212  A    between atoms: _510  and  _513
REMARK  213  A    between atoms: _513  and  _514
REMARK  214  A    between atoms: _524  and  _526
REMARK  215  A    between atoms: _526  and  _527
REMARK  216  A    between atoms: _526  and  _529
REMARK  217  A    between atoms: _529  and  _530
REMARK  218  A    between atoms: _534  and  _535
REMARK  219  A    between atoms: _540  and  _542
REMARK  220  A    between atoms: _542  and  _543
REMARK  221  A    between atoms: _542  and  _545
REMARK  222  A    between atoms: _545  and  _546
REMARK  223  A    between atoms: _549  and  _551
REMARK  224  A    between atoms: _551  and  _552
REMARK  225  A    between atoms: _551  and  _554
REMARK  226  A    between atoms: _554  and  _555
REMARK  227  A    between atoms: _558  and  _560
REMARK  228  A    between atoms: _560  and  _561
REMARK  229  A    between atoms: _564  and  _566
REMARK  230  A    between atoms: _566  and  _567
REMARK  231  A    between atoms: _566  and  _569
REMARK  232  A    between atoms: _569  and  _570
REMARK  233  A    between atoms: _573  and  _575
REMARK  234  A    between atoms: _575  and  _576
REMARK  235  A    between atoms: _575  and  _578
REMARK  236  A    between atoms: _578  and  _579
REMARK  237  A    between atoms: _579  and  _580
REMARK  238  A    between atoms: _585  and  _587
REMARK  239  A    between atoms: _587  and  _588
REMARK  240  A    between atoms: _590  and  _592
REMARK  241  A    between atoms: _592  and  _593
REMARK  242  A    between atoms: _592  and  _595
REMARK  243  A    between atoms: _595  and  _596
REMARK  244  A    between atoms: _599  and  _601
REMARK  245  A    between atoms: _601  and  _602
REMARK  246  A    between atoms: _601  and  _604
REMARK  247  A    between atoms: _604  and  _605
REMARK  248  A    between atoms: _607  and  _609
REMARK  249  A    between atoms: _609  and  _610
REMARK  250  A    between atoms: _613  and  _615
REMARK  251  A    between atoms: _615  and  _616
REMARK  252  A    between atoms: _615  and  _618
REMARK  253  A    between atoms: _618  and  _619
REMARK  254  A    between atoms: _622  and  _624
REMARK  255  A    between atoms: _624  and  _625
REMARK  256  A    between atoms: _624  and  _627
REMARK  257  A    between atoms: _630  and  _632
REMARK  258  A    between atoms: _632  and  _633
REMARK  259  A    between atoms: _632  and  _635
REMARK  260  A    between atoms: _635  and  _636
REMARK  261  A    between atoms: _636  and  _637
REMARK  262  A    between atoms: _642  and  _644
REMARK  263  A    between atoms: _644  and  _645
REMARK  264  A    between atoms: _644  and  _647
REMARK  265  A    between atoms: _647  and  _648
REMARK  266  A    between atoms: _651  and  _653
REMARK  267  A    between atoms: _653  and  _654
REMARK  268  A    between atoms: _653  and  _656
REMARK  269  A    between atoms: _656  and  _657
REMARK                            x       y       z     vdW  Elec       q    Type
REMARK                         _______ _______ _______ _____ _____    ______ ____
ROOT
ATOM      1  CG  TRP A   1     -16.273  10.174  -2.105  0.00  0.00    -0.002 A 
ATOM      2  CD2 TRP A   1     -15.242  10.357  -1.141  0.00  0.00    +0.013 A 
ATOM      3  CE2 TRP A   1     -15.702   9.798   0.075  0.00  0.00    +0.056 A 
ATOM      4  CZ2 TRP A   1     -14.933   9.799   1.243  0.00  0.00    +0.017 A 
ATOM      5  CH2 TRP A   1     -13.694  10.376   1.193  0.00  0.00    +0.001 A 
ATOM      6  CZ3 TRP A   1     -13.191  10.954   0.002  0.00  0.00    +0.000 A 
ATOM      7  NE1 TRP A   1     -16.953   9.297  -0.159  0.00  0.00    -0.352 N 
ATOM      8  HE1 TRP A   1     -17.554   8.818   0.541  0.00  0.00    +0.166 HD
ATOM      9  CE3 TRP A   1     -13.967  10.946  -1.178  0.00  0.00    +0.001 A 
ATOM     10  CD1 TRP A   1     -17.286   9.532  -1.478  0.00  0.00    +0.068 A 
ENDROOT
BRANCH   1  11
ATOM     11  CB  TRP A   1     -16.237  10.606  -3.523  0.00  0.00    +0.053 C 
BRANCH  11  12
ATOM     12  CA  TRP A   1     -16.651  12.072  -3.731  0.00  0.00    +0.137 C 
BRANCH  12  13
ATOM     13  N   TRP A   1     -18.033  12.274  -3.314  0.00  0.00    -0.239 NA
ATOM     14  H   TRP A   1     -18.650  11.443  -3.210  0.00  0.00    +0.142 HD
ENDBRANCH  12  13
BRANCH  12  15
ATOM     15  C   TRP A   1     -16.584  12.363  -5.220  0.00  0.00    +0.224 C 
ATOM     16  O   TRP A   1     -17.541  12.102  -5.927  0.00  0.00    -0.287 OA
ENDBRANCH  12  15
ENDBRANCH  11  12
ENDBRANCH   1  11
TORSDOF 4
REMARK  Name = ../refined-set-2016/2q7y/2q7y_pocket.pdb
REMARK  269 active torsions:
REMARK  status: ('A' for Active; 'I' for Inactive)
REMARK    1  A    between atoms: _1  and  _3
REMARK    2  A    between atoms: _3  and  _4
REMARK    3  A    between atoms: _3  and  _6
REMARK    4  A    between atoms: _8  and  _10
REMARK    5  A    between atoms: _10  and  _11
REMARK    6  A    between atoms: _10  and  _13
REMARK    7  A    between atoms: _13  and  _14
REMARK    8  A    between atoms: _14  and  _15
REMARK    9  A    between atoms: _20  and  _22
REMARK   10  A    between atoms: _22  and  _23
REMARK   11  A    between atoms: _22  and  _25
REMARK   12  A    between atoms: _25  and  _26
REMARK   13  A    between atoms: _32  and  _34
REMARK   14  A    between atoms: _34  and  _35
REMARK   15  A    between atoms: _34  and  _37
REMARK   16  A    between atoms: _37  and  _38
REMARK   17  A    between atoms: _40  and  _42
REMARK   18  A    between atoms: _42  and  _43
REMARK   19  A    between atoms: _42  and  _45
REMARK   20  A    between atoms: _45  and  _46
REMARK   21  A    between atoms: _51  and  _53
REMARK   22  A    between atoms: _53  and  _54
REMARK   23  A    between atoms: _53  and  _56
REMARK   24  A    between atoms: _56  and  _57
REMARK   25  A    between atoms: _57  and  _58
REMARK   26  A    between atoms: _60  and  _62
REMARK   27  A    between atoms: _62  and  _63
REMARK   28  A    between atoms: _62  and  _65
REMARK   29  A    between atoms: _65  and  _66
REMARK   30  A    between atoms: _72  and  _74
REMARK   31  A    between atoms: _74  and  _75
REMARK   32  A    between atoms: _74  and  _77
REMARK   33  A    between atoms: _77  and  _78
REMARK   34  A    between atoms: _78  and  _79
REMARK   35  A    between atoms: _84  and  _86
REMARK   36  A    between atoms: _86  and  _87
REMARK   37  A    between atoms: _86  and  _89
REMARK   38  A    between atoms: _92  and  _94
REMARK   39  A    between atoms: _94  and  _95
REMARK   40  A    between atoms: _94  and  _97
REMARK   41  A    between atoms: _97  and  _98
REMARK   42  A    between atoms: _103  and  _104
REMARK   43  A    between atoms: _106  and  _108
REMARK   44  A    between atoms: _108  and  _109
REMARK   45  A    between atoms: _108  and  _111
REMARK   46  A    between atoms: _111  and  _112
REMARK   47  A    between atoms: _112  and  _113
REMARK   48  A    between atoms: _113  and  _114
REMARK   49  A    between atoms: _123  and  _125
REMARK   50  A    between atoms: _125  and  _126
REMARK   51  A    between atoms: _125  and  _128
REMARK   52  A    between atoms: _131  and  _133
REMARK   53  A    between atoms: _133  and  _134
REMARK   54  A    between atoms: _133  and  _136
REMARK   55  A    between atoms: _136  and  _137
REMARK   56  A    between atoms: _139  and  _141
REMARK   57  A    between atoms: _141  and  _142
REMARK   58  A    between atoms: _141  and  _144
REMARK   59  A    between atoms: _144  and  _145
REMARK   60  A    between atoms: _151  and  _153
REMARK   61  A    between atoms: _153  and  _154
REMARK   62  A    between atoms: _153  and  _156
REMARK   63  A    between atoms: _156  and  _157
REMARK   64  A    between atoms: _160  and  _162
REMARK   65  A    between atoms: _162  and  _163
REMARK   66  A    between atoms: _162  and  _165
REMARK   67  A    between atoms: _165  and  _166
REMARK   68  A    between atoms: _166  and  _167
REMARK   69  A    between atoms: _167  and  _168
REMARK   70  A    between atoms: _177  and  _179
REMARK   71  A    between atoms: _179  and  _180
REMARK   72  A    between atoms: _179  and  _182
REMARK   73  A    between atoms: _182  and  _183
REMARK   74  A    between atoms: _186  and  _188
REMARK   75  A    between atoms: _188  and  _189
REMARK   76  A    between atoms: _188  and  _191
REMARK   77  A    between atoms: _191  and  _192
REMARK   78  A    between atoms: _195  and  _197
REMARK   79  A    between atoms: _197  and  _198
REMARK   80  A    between atoms: _197  and  _200
REMARK   81  A    between atoms: _200  and  _201
REMARK   82  A    between atoms: _201  and  _202
REMARK   83  A    between atoms: _207  and  _209
REMARK   84  A    between atoms: _209  and  _210
REMARK   85  A    between atoms: _209  and  _212
REMARK   86  A    between atoms: _212  and  _213
REMARK   87  A    between atoms: _213  and  _214
REMARK   88  A    between atoms: _217  and  _219
REMARK   89  A    between atoms: _219  and  _220
REMARK   90  A    between atoms: _219  and  _222
REMARK   91  A    between atoms: _222  and  _223
REMARK   92  A    between atoms: _226  and  _228
REMARK   93  A    between atoms: _228  and  _229
REMARK   94  A    between atoms: _228  and  _231
REMARK   95  A    between atoms: _234  and  _236
REMARK   96  A    between atoms: _236  and  _237
REMARK   97  A    between atoms: _236  and  _239
REMARK   98  A    between atoms: _239  and  _240
REMARK   99  A    between atoms: _240  and  _241
REMARK  100  A    between atoms: _241  and  _242
REMARK  101  A    between atoms: _242  and  _243
REMARK  102  A    between atoms: _247  and  _249
REMARK  103  A    between atoms: _249  and  _250
REMARK  104  A    between atoms: _249  and  _252
REMARK  105  A    between atoms: _252  and  _253
REMARK  106  A    between atoms: _253  and  _254
REMARK  107  A    between atoms: _256  and  _258
REMARK  108  A    between atoms: _258  and  _259
REMARK  109  A    between atoms: _258  and  _261
REMARK  110  A    between atoms: _261  and  _262
REMARK  111  A    between atoms: _262  and  _263
REMARK  112  A    between atoms: _265  and  _267
REMARK  113  A    between atoms: _267  and  _268
REMARK  114  A    between atoms: _267  and  _270
REMARK  115  A    between atoms: _270  and  _271
REMARK  116  A    between atoms: _273  and  _275
REMARK  117  A    between atoms: _275  and  _276
REMARK  118  A    between atoms: _275  and  _278
REMARK  119  A    between atoms: _278  and  _279
REMARK  120  A    between atoms: _279  and  _280
REMARK  121  A    between atoms: _283  and  _285
REMARK  122  A    between atoms: _285  and  _286
REMARK  123  A    between atoms: _285  and  _288
REMARK  124  A    between atoms: _288  and  _289
REMARK  125  A    between atoms: _292  and  _294
REMARK  126  A    between atoms: _294  and  _295
REMARK  127  A    between atoms: _294  and  _297
REMARK  128  A    between atoms: _297  and  _298
REMARK  129  A    between atoms: _301  and  _303
REMARK  130  A    between atoms: _303  and  _304
REMARK  131  A    between atoms: _303  and  _306
REMARK  132  A    between atoms: _306  and  _307
REMARK  133  A    between atoms: _307  and  _308
REMARK  134  A    between atoms: _311  and  _313
REMARK  135  A    between atoms: _313  and  _314
REMARK  136  A    between atoms: _313  and  _316
REMARK  137  A    between atoms: _316  and  _317
REMARK  138  A    between atoms: _320  and  _322
REMARK  139  A    between atoms: _322  and  _323
REMARK  140  A    between atoms: _322  and  _325
REMARK  141  A    between atoms: _325  and  _326
REMARK  142  A    between atoms: _326  and  _327
REMARK  143  A    between atoms: _332  and  _334
REMARK  144  A    between atoms: _334  and  _335
REMARK  145  A    between atoms: _334  and  _337
REMARK  146  A    between atoms: _337  and  _338
REMARK  147  A    between atoms: _341  and  _343
REMARK  148  A    between atoms: _343  and  _344
REMARK  149  A    between atoms: _343  and  _346
REMARK  150  A    between atoms: _346  and  _347
REMARK  151  A    between atoms: _349  and  _351
REMARK  152  A    between atoms: _351  and  _352
REMARK  153  A    between atoms: _355  and  _357
REMARK  154  A    between atoms: _357  and  _358
REMARK  155  A    between atoms: _357  and  _360
REMARK  156  A    between atoms: _360  and  _361
REMARK  157  A    between atoms: _367  and  _369
REMARK  158  A    between atoms: _369  and  _370
REMARK  159  A    between atoms: _369  and  _372
REMARK  160  A    between atoms: _372  and  _373
REMARK  161  A    between atoms: _376  and  _378
REMARK  162  A    between atoms: _378  and  _379
REMARK  163  A    between atoms: _378  and  _381
REMARK  164  A    between atoms: _381  and  _382
REMARK  165  A    between atoms: _387  and  _389
REMARK  166  A    between atoms: _389  and  _390
REMARK  167  A    between atoms: _389  and  _392
REMARK  168  A    between atoms: _395  and  _397
REMARK  169  A    between atoms: _397  and  _398
REMARK  170  A    between atoms: _401  and  _403
REMARK  171  A    between atoms: _403  and  _404
REMARK  172  A    between atoms: _403  and  _406
REMARK  173  A    between atoms: _406  and  _407
REMARK  174  A    between atoms: _413  and  _415
REMARK  175  A    between atoms: _415  and  _416
REMARK  176  A    between atoms: _415  and  _418
REMARK  177  A    between atoms: _418  and  _419
REMARK  178  A    between atoms: _419  and  _420
REMARK  179  A    between atoms: _425  and  _427
REMARK  180  A    between atoms: _427  and  _428
REMARK  181  A    between atoms: _427  and  _430
REMARK  182  A    between atoms: _430  and  _431
REMARK  183  A    between atoms: _431  and  _432
REMARK  184  A    between atoms: _432  and  _433
REMARK  185  A    between atoms: _433  and  _434
REMARK  186  A    between atoms: _438  and  _440
REMARK  187  A    between atoms: _440  and  _441
REMARK  188  A    between atoms: _440  and  _443
REMARK  189  A    between atoms: _446  and  _448
REMARK  190  A    between atoms: _448  and  _449
REMARK  191  A    between atoms: _448  and  _451
REMARK  192  A    between atoms: _454  and  _456
REMARK  193  A    between atoms: _456  and  _457
REMARK  194  A    between atoms: _456  and  _459
REMARK  195  A    between atoms: _459  and  _460
REMARK  196  A    between atoms: _460  and  _461
REMARK  197  A    between atoms: _461  and  _462
REMARK  198  A    between atoms: _471  and  _473
REMARK  199  A    between atoms: _473  and  _474
REMARK  200  A    between atoms: _473  and  _476
REMARK  201  A    between atoms: _476  and  _477
REMARK  202  A    between atoms: _483  and  _485
REMARK  203  A    between atoms: _485  and  _486
REMARK  204  A    between atoms: _485  and  _488
REMARK  205  A    between atoms: _488  and  _489
REMARK  206  A    between atoms: _499  and  _501
REMARK  207  A    between atoms: _501  and  _502
REMARK  208  A    between atoms: _501  and  _504
REMARK  209  A    between atoms: _504  and  _505
REMARK  210  A    between atoms: _508  and  _510
REMARK  211  A    between atoms: _510  and  _511
REMARK  212  A    between atoms: _510  and  _513
REMARK  213  A    between atoms: _513  and  _514
REMARK  214  A    between atoms: _524  and  _526
REMARK  215  A    between atoms: _526  and  _527
REMARK  216  A    between atoms: _526  and  _529
REMARK  217  A    between atoms: _529  and  _530
REMARK  218  A    between atoms: _534  and  _535
REMARK  219  A    between atoms: _540  and  _542
REMARK  220  A    between atoms: _542  and  _543
REMARK  221  A    between atoms: _542  and  _545
REMARK  222  A    between atoms: _545  and  _546
REMARK  223  A    between atoms: _549  and  _551
REMARK  224  A    between atoms: _551  and  _552
REMARK  225  A    between atoms: _551  and  _554
REMARK  226  A    between atoms: _554  and  _555
REMARK  227  A    between atoms: _558  and  _560
REMARK  228  A    between atoms: _560  and  _561
REMARK  229  A    between atoms: _564  and  _566
REMARK  230  A    between atoms: _566  and  _567
REMARK  231  A    between atoms: _566  and  _569
REMARK  232  A    between atoms: _569  and  _570
REMARK  233  A    between atoms: _573  and  _575
REMARK  234  A    between atoms: _575  and  _576
REMARK  235  A    between atoms: _575  and  _578
REMARK  236  A    between atoms: _578  and  _579
REMARK  237  A    between atoms: _579  and  _580
REMARK  238  A    between atoms: _585  and  _587
REMARK  239  A    between atoms: _587  and  _588
REMARK  240  A    between atoms: _590  and  _592
REMARK  241  A    between atoms: _592  and  _593
REMARK  242  A    between atoms: _592  and  _595
REMARK  243  A    between atoms: _595  and  _596
REMARK  244  A    between atoms: _599  and  _601
REMARK  245  A    between atoms: _601  and  _602
REMARK  246  A    between atoms: _601  and  _604
REMARK  247  A    between atoms: _604  and  _605
REMARK  248  A    between atoms: _607  and  _609
REMARK  249  A    between atoms: _609  and  _610
REMARK  250  A    between atoms: _613  and  _615
REMARK  251  A    between atoms: _615  and  _616
REMARK  252  A    between atoms: _615  and  _618
REMARK  253  A    between atoms: _618  and  _619
REMARK  254  A    between atoms: _622  and  _624
REMARK  255  A    between atoms: _624  and  _625
REMARK  256  A    between atoms: _624  and  _627
REMARK  257  A    between atoms: _630  and  _632
REMARK  258  A    between atoms: _632  and  _633
REMARK  259  A    between atoms: _632  and  _635
REMARK  260  A    between atoms: _635  and  _636
REMARK  261  A    between atoms: _636  and  _637
REMARK  262  A    between atoms: _642  and  _644
REMARK  263  A    between atoms: _644  and  _645
REMARK  264  A    between atoms: _644  and  _647
REMARK  265  A    between atoms: _647  and  _648
REMARK  266  A    between atoms: _651  and  _653
REMARK  267  A    between atoms: _653  and  _654
REMARK  268  A    between atoms: _653  and  _656
REMARK  269  A    between atoms: _656  and  _657
REMARK                            x       y       z     vdW  Elec       q    Type
REMARK                         _______ _______ _______ _____ _____    ______ ____
ROOT
ATOM      1  CA  THR A   1     -12.372  12.407  -9.228  0.00  0.00    +0.160 C 
ENDROOT
BRANCH   1   2
ATOM      2  N   THR A   1     -13.729  12.495  -8.741  0.00  0.00    -0.237 NA
ATOM      3  H   THR A   1     -14.529  12.225  -9.348  0.00  0.00    +0.142 HD
ENDBRANCH   1   2
BRANCH   1   4
ATOM      4  C   THR A   1     -11.978  13.820  -9.647  0.00  0.00    +0.227 C 
ATOM      5  O   THR A   1     -12.844  14.625  -9.989  0.00  0.00    -0.287 OA
ENDBRANCH   1   4
BRANCH   1   6
ATOM      6  CB  THR A   1     -12.282  11.404 -10.396  0.00  0.00    +0.134 C 
ATOM      7  CG2 THR A   1     -12.557  10.008  -9.900  0.00  0.00    +0.034 C 
BRANCH   6   8
ATOM      8  OG1 THR A   1     -13.278  11.708 -11.381  0.00  0.00    -0.383 OA
ATOM      9  HG1 THR A   1     -14.176  11.650 -10.969  0.00  0.00    +0.210 HD
ENDBRANCH   6   8
ENDBRANCH   1   6
TORSDOF 4
REMARK  Name = ../refined-set-2016/2q7y/2q7y_pocket.pdb
REMARK  269 active torsions:
REMARK  status: ('A' for Active; 'I' for Inactive)
REMARK    1  A    between atoms: _1  and  _3
REMARK    2  A    between atoms: _3  and  _4
REMARK    3  A    between atoms: _3  and  _6
REMARK    4  A    between atoms: _8  and  _10
REMARK    5  A    between atoms: _10  and  _11
REMARK    6  A    between atoms: _10  and  _13
REMARK    7  A    between atoms: _13  and  _14
REMARK    8  A    between atoms: _14  and  _15
REMARK    9  A    between atoms: _20  and  _22
REMARK   10  A    between atoms: _22  and  _23
REMARK   11  A    between atoms: _22  and  _25
REMARK   12  A    between atoms: _25  and  _26
REMARK   13  A    between atoms: _32  and  _34
REMARK   14  A    between atoms: _34  and  _35
REMARK   15  A    between atoms: _34  and  _37
REMARK   16  A    between atoms: _37  and  _38
REMARK   17  A    between atoms: _40  and  _42
REMARK   18  A    between atoms: _42  and  _43
REMARK   19  A    between atoms: _42  and  _45
REMARK   20  A    between atoms: _45  and  _46
REMARK   21  A    between atoms: _51  and  _53
REMARK   22  A    between atoms: _53  and  _54
REMARK   23  A    between atoms: _53  and  _56
REMARK   24  A    between atoms: _56  and  _57
REMARK   25  A    between atoms: _57  and  _58
REMARK   26  A    between atoms: _60  and  _62
REMARK   27  A    between atoms: _62  and  _63
REMARK   28  A    between atoms: _62  and  _65
REMARK   29  A    between atoms: _65  and  _66
REMARK   30  A    between atoms: _72  and  _74
REMARK   31  A    between atoms: _74  and  _75
REMARK   32  A    between atoms: _74  and  _77
REMARK   33  A    between atoms: _77  and  _78
REMARK   34  A    between atoms: _78  and  _79
REMARK   35  A    between atoms: _84  and  _86
REMARK   36  A    between atoms: _86  and  _87
REMARK   37  A    between atoms: _86  and  _89
REMARK   38  A    between atoms: _92  and  _94
REMARK   39  A    between atoms: _94  and  _95
REMARK   40  A    between atoms: _94  and  _97
REMARK   41  A    between atoms: _97  and  _98
REMARK   42  A    between atoms: _103  and  _104
REMARK   43  A    between atoms: _106  and  _108
REMARK   44  A    between atoms: _108  and  _109
REMARK   45  A    between atoms: _108  and  _111
REMARK   46  A    between atoms: _111  and  _112
REMARK   47  A    between atoms: _112  and  _113
REMARK   48  A    between atoms: _113  and  _114
REMARK   49  A    between atoms: _123  and  _125
REMARK   50  A    between atoms: _125  and  _126
REMARK   51  A    between atoms: _125  and  _128
REMARK   52  A    between atoms: _131  and  _133
REMARK   53  A    between atoms: _133  and  _134
REMARK   54  A    between atoms: _133  and  _136
REMARK   55  A    between atoms: _136  and  _137
REMARK   56  A    between atoms: _139  and  _141
REMARK   57  A    between atoms: _141  and  _142
REMARK   58  A    between atoms: _141  and  _144
REMARK   59  A    between atoms: _144  and  _145
REMARK   60  A    between atoms: _151  and  _153
REMARK   61  A    between atoms: _153  and  _154
REMARK   62  A    between atoms: _153  and  _156
REMARK   63  A    between atoms: _156  and  _157
REMARK   64  A    between atoms: _160  and  _162
REMARK   65  A    between atoms: _162  and  _163
REMARK   66  A    between atoms: _162  and  _165
REMARK   67  A    between atoms: _165  and  _166
REMARK   68  A    between atoms: _166  and  _167
REMARK   69  A    between atoms: _167  and  _168
REMARK   70  A    between atoms: _177  and  _179
REMARK   71  A    between atoms: _179  and  _180
REMARK   72  A    between atoms: _179  and  _182
REMARK   73  A    between atoms: _182  and  _183
REMARK   74  A    between atoms: _186  and  _188
REMARK   75  A    between atoms: _188  and  _189
REMARK   76  A    between atoms: _188  and  _191
REMARK   77  A    between atoms: _191  and  _192
REMARK   78  A    between atoms: _195  and  _197
REMARK   79  A    between atoms: _197  and  _198
REMARK   80  A    between atoms: _197  and  _200
REMARK   81  A    between atoms: _200  and  _201
REMARK   82  A    between atoms: _201  and  _202
REMARK   83  A    between atoms: _207  and  _209
REMARK   84  A    between atoms: _209  and  _210
REMARK   85  A    between atoms: _209  and  _212
REMARK   86  A    between atoms: _212  and  _213
REMARK   87  A    between atoms: _213  and  _214
REMARK   88  A    between atoms: _217  and  _219
REMARK   89  A    between atoms: _219  and  _220
REMARK   90  A    between atoms: _219  and  _222
REMARK   91  A    between atoms: _222  and  _223
REMARK   92  A    between atoms: _226  and  _228
REMARK   93  A    between atoms: _228  and  _229
REMARK   94  A    between atoms: _228  and  _231
REMARK   95  A    between atoms: _234  and  _236
REMARK   96  A    between atoms: _236  and  _237
REMARK   97  A    between atoms: _236  and  _239
REMARK   98  A    between atoms: _239  and  _240
REMARK   99  A    between atoms: _240  and  _241
REMARK  100  A    between atoms: _241  and  _242
REMARK  101  A    between atoms: _242  and  _243
REMARK  102  A    between atoms: _247  and  _249
REMARK  103  A    between atoms: _249  and  _250
REMARK  104  A    between atoms: _249  and  _252
REMARK  105  A    between atoms: _252  and  _253
REMARK  106  A    between atoms: _253  and  _254
REMARK  107  A    between atoms: _256  and  _258
REMARK  108  A    between atoms: _258  and  _259
REMARK  109  A    between atoms: _258  and  _261
REMARK  110  A    between atoms: _261  and  _262
REMARK  111  A    between atoms: _262  and  _263
REMARK  112  A    between atoms: _265  and  _267
REMARK  113  A    between atoms: _267  and  _268
REMARK  114  A    between atoms: _267  and  _270
REMARK  115  A    between atoms: _270  and  _271
REMARK  116  A    between atoms: _273  and  _275
REMARK  117  A    between atoms: _275  and  _276
REMARK  118  A    between atoms: _275  and  _278
REMARK  119  A    between atoms: _278  and  _279
REMARK  120  A    between atoms: _279  and  _280
REMARK  121  A    between atoms: _283  and  _285
REMARK  122  A    between atoms: _285  and  _286
REMARK  123  A    between atoms: _285  and  _288
REMARK  124  A    between atoms: _288  and  _289
REMARK  125  A    between atoms: _292  and  _294
REMARK  126  A    between atoms: _294  and  _295
REMARK  127  A    between atoms: _294  and  _297
REMARK  128  A    between atoms: _297  and  _298
REMARK  129  A    between atoms: _301  and  _303
REMARK  130  A    between atoms: _303  and  _304
REMARK  131  A    between atoms: _303  and  _306
REMARK  132  A    between atoms: _306  and  _307
REMARK  133  A    between atoms: _307  and  _308
REMARK  134  A    between atoms: _311  and  _313
REMARK  135  A    between atoms: _313  and  _314
REMARK  136  A    between atoms: _313  and  _316
REMARK  137  A    between atoms: _316  and  _317
REMARK  138  A    between atoms: _320  and  _322
REMARK  139  A    between atoms: _322  and  _323
REMARK  140  A    between atoms: _322  and  _325
REMARK  141  A    between atoms: _325  and  _326
REMARK  142  A    between atoms: _326  and  _327
REMARK  143  A    between atoms: _332  and  _334
REMARK  144  A    between atoms: _334  and  _335
REMARK  145  A    between atoms: _334  and  _337
REMARK  146  A    between atoms: _337  and  _338
REMARK  147  A    between atoms: _341  and  _343
REMARK  148  A    between atoms: _343  and  _344
REMARK  149  A    between atoms: _343  and  _346
REMARK  150  A    between atoms: _346  and  _347
REMARK  151  A    between atoms: _349  and  _351
REMARK  152  A    between atoms: _351  and  _352
REMARK  153  A    between atoms: _355  and  _357
REMARK  154  A    between atoms: _357  and  _358
REMARK  155  A    between atoms: _357  and  _360
REMARK  156  A    between atoms: _360  and  _361
REMARK  157  A    between atoms: _367  and  _369
REMARK  158  A    between atoms: _369  and  _370
REMARK  159  A    between atoms: _369  and  _372
REMARK  160  A    between atoms: _372  and  _373
REMARK  161  A    between atoms: _376  and  _378
REMARK  162  A    between atoms: _378  and  _379
REMARK  163  A    between atoms: _378  and  _381
REMARK  164  A    between atoms: _381  and  _382
REMARK  165  A    between atoms: _387  and  _389
REMARK  166  A    between atoms: _389  and  _390
REMARK  167  A    between atoms: _389  and  _392
REMARK  168  A    between atoms: _395  and  _397
REMARK  169  A    between atoms: _397  and  _398
REMARK  170  A    between atoms: _401  and  _403
REMARK  171  A    between atoms: _403  and  _404
REMARK  172  A    between atoms: _403  and  _406
REMARK  173  A    between atoms: _406  and  _407
REMARK  174  A    between atoms: _413  and  _415
REMARK  175  A    between atoms: _415  and  _416
REMARK  176  A    between atoms: _415  and  _418
REMARK  177  A    between atoms: _418  and  _419
REMARK  178  A    between atoms: _419  and  _420
REMARK  179  A    between atoms: _425  and  _427
REMARK  180  A    between atoms: _427  and  _428
REMARK  181  A    between atoms: _427  and  _430
REMARK  182  A    between atoms: _430  and  _431
REMARK  183  A    between atoms: _431  and  _432
REMARK  184  A    between atoms: _432  and  _433
REMARK  185  A    between atoms: _433  and  _434
REMARK  186  A    between atoms: _438  and  _440
REMARK  187  A    between atoms: _440  and  _441
REMARK  188  A    between atoms: _440  and  _443
REMARK  189  A    between atoms: _446  and  _448
REMARK  190  A    between atoms: _448  and  _449
REMARK  191  A    between atoms: _448  and  _451
REMARK  192  A    between atoms: _454  and  _456
REMARK  193  A    between atoms: _456  and  _457
REMARK  194  A    between atoms: _456  and  _459
REMARK  195  A    between atoms: _459  and  _460
REMARK  196  A    between atoms: _460  and  _461
REMARK  197  A    between atoms: _461  and  _462
REMARK  198  A    between atoms: _471  and  _473
REMARK  199  A    between atoms: _473  and  _474
REMARK  200  A    between atoms: _473  and  _476
REMARK  201  A    between atoms: _476  and  _477
REMARK  202  A    between atoms: _483  and  _485
REMARK  203  A    between atoms: _485  and  _486
REMARK  204  A    between atoms: _485  and  _488
REMARK  205  A    between atoms: _488  and  _489
REMARK  206  A    between atoms: _499  and  _501
REMARK  207  A    between atoms: _501  and  _502
REMARK  208  A    between atoms: _501  and  _504
REMARK  209  A    between atoms: _504  and  _505
REMARK  210  A    between atoms: _508  and  _510
REMARK  211  A    between atoms: _510  and  _511
REMARK  212  A    between atoms: _510  and  _513
REMARK  213  A    between atoms: _513  and  _514
REMARK  214  A    between atoms: _524  and  _526
REMARK  215  A    between atoms: _526  and  _527
REMARK  216  A    between atoms: _526  and  _529
REMARK  217  A    between atoms: _529  and  _530
REMARK  218  A    between atoms: _534  and  _535
REMARK  219  A    between atoms: _540  and  _542
REMARK  220  A    between atoms: _542  and  _543
REMARK  221  A    between atoms: _542  and  _545
REMARK  222  A    between atoms: _545  and  _546
REMARK  223  A    between atoms: _549  and  _551
REMARK  224  A    between atoms: _551  and  _552
REMARK  225  A    between atoms: _551  and  _554
REMARK  226  A    between atoms: _554  and  _555
REMARK  227  A    between atoms: _558  and  _560
REMARK  228  A    between atoms: _560  and  _561
REMARK  229  A    between atoms: _564  and  _566
REMARK  230  A    between atoms: _566  and  _567
REMARK  231  A    between atoms: _566  and  _569
REMARK  232  A    between atoms: _569  and  _570
REMARK  233  A    between atoms: _573  and  _575
REMARK  234  A    between atoms: _575  and  _576
REMARK  235  A    between atoms: _575  and  _578
REMARK  236  A    between atoms: _578  and  _579
REMARK  237  A    between atoms: _579  and  _580
REMARK  238  A    between atoms: _585  and  _587
REMARK  239  A    between atoms: _587  and  _588
REMARK  240  A    between atoms: _590  and  _592
REMARK  241  A    between atoms: _592  and  _593
REMARK  242  A    between atoms: _592  and  _595
REMARK  243  A    between atoms: _595  and  _596
REMARK  244  A    between atoms: _599  and  _601
REMARK  245  A    between atoms: _601  and  _602
REMARK  246  A    between atoms: _601  and  _604
REMARK  247  A    between atoms: _604  and  _605
REMARK  248  A    between atoms: _607  and  _609
REMARK  249  A    between atoms: _609  and  _610
REMARK  250  A    between atoms: _613  and  _615
REMARK  251  A    between atoms: _615  and  _616
REMARK  252  A    between atoms: _615  and  _618
REMARK  253  A    between atoms: _618  and  _619
REMARK  254  A    between atoms: _622  and  _624
REMARK  255  A    between atoms: _624  and  _625
REMARK  256  A    between atoms: _624  and  _627
REMARK  257  A    between atoms: _630  and  _632
REMARK  258  A    between atoms: _632  and  _633
REMARK  259  A    between atoms: _632  and  _635
REMARK  260  A    between atoms: _635  and  _636
REMARK  261  A    between atoms: _636  and  _637
REMARK  262  A    between atoms: _642  and  _644
REMARK  263  A    between atoms: _644  and  _645
REMARK  264  A    between atoms: _644  and  _647
REMARK  265  A    between atoms: _647  and  _648
REMARK  266  A    between atoms: _651  and  _653
REMARK  267  A    between atoms: _653  and  _654
REMARK  268  A    between atoms: _653  and  _656
REMARK  269  A    between atoms: _656  and  _657
REMARK                            x       y       z     vdW  Elec       q    Type
REMARK                         _______ _______ _______ _____ _____    ______ ____
ROOT
ATOM      1  CA  TRP A   1     -10.278   3.306 -13.900  0.00  0.00    +0.149 C 
ENDROOT
BRANCH   1   2
ATOM      2  C   TRP A   1     -10.942   3.593 -12.540  0.00  0.00    +0.239 C 
ATOM      3  O   TRP A   1     -11.576   2.709 -11.954  0.00  0.00    -0.274 OA
ATOM      4  N   LEU A   2     -10.785   4.836 -12.060  0.00  0.00    -0.298 N 
ATOM      5  H   LEU A   2     -10.208   5.506 -12.608  0.00  0.00    +0.150 HD
BRANCH   4   6
ATOM      6  CA  LEU A   2     -11.382   5.301 -10.806  0.00  0.00    +0.137 C 
BRANCH   6   7
ATOM      7  C   LEU A   2     -12.887   5.515 -10.909  0.00  0.00    +0.227 C 
ATOM      8  O   LEU A   2     -13.564   5.635  -9.890  0.00  0.00    -0.286 OA
ENDBRANCH   6   7
BRANCH   6   9
ATOM      9  CB  LEU A   2     -10.698   6.596 -10.336  0.00  0.00    +0.028 C 
BRANCH   9  10
ATOM     10  CG  LEU A   2      -9.342   6.363  -9.682  0.00  0.00    +0.002 C 
ATOM     11  CD2 LEU A   2      -9.576   5.791  -8.293  0.00  0.00    +0.000 C 
ATOM     12  CD1 LEU A   2      -8.561   7.675  -9.640  0.00  0.00    +0.000 C 
ENDBRANCH   9  10
ENDBRANCH   6   9
ENDBRANCH   4   6
ENDBRANCH   1   2
BRANCH   1  13
ATOM     13  N   TRP A   1      -9.973   4.553 -14.623  0.00  0.00    -0.238 NA
ATOM     14  H   TRP A   1      -8.984   4.842 -14.761  0.00  0.00    +0.142 HD
ENDBRANCH   1  13
BRANCH   1  15
ATOM     15  CB  TRP A   1      -9.053   2.390 -13.749  0.00  0.00    +0.054 C 
BRANCH  15  16
ATOM     16  CG  TRP A   1      -7.945   2.936 -12.900  0.00  0.00    -0.002 A 
ATOM     17  CD2 TRP A   1      -7.879   2.944 -11.470  0.00  0.00    +0.013 A 
ATOM     18  CE3 TRP A   1      -8.733   2.490 -10.451  0.00  0.00    +0.001 A 
ATOM     19  CZ3 TRP A   1      -8.349   2.661  -9.130  0.00  0.00    +0.000 A 
ATOM     20  CH2 TRP A   1      -7.122   3.282  -8.808  0.00  0.00    +0.001 A 
ATOM     21  CZ2 TRP A   1      -6.269   3.734  -9.790  0.00  0.00    +0.017 A 
ATOM     22  CE2 TRP A   1      -6.659   3.559 -11.114  0.00  0.00    +0.056 A 
ATOM     23  NE1 TRP A   1      -6.020   3.905 -12.276  0.00  0.00    -0.352 N 
ATOM     24  HE1 TRP A   1      -5.095   4.377 -12.340  0.00  0.00    +0.166 HD
ATOM     25  CD1 TRP A   1      -6.796   3.529 -13.340  0.00  0.00    +0.068 A 
ENDBRANCH  15  16
ENDBRANCH   1  15
TORSDOF 8
REMARK  Name = ../refined-set-2016/2q7y/2q7y_pocket.pdb
REMARK  269 active torsions:
REMARK  status: ('A' for Active; 'I' for Inactive)
REMARK    1  A    between atoms: _1  and  _3
REMARK    2  A    between atoms: _3  and  _4
REMARK    3  A    between atoms: _3  and  _6
REMARK    4  A    between atoms: _8  and  _10
REMARK    5  A    between atoms: _10  and  _11
REMARK    6  A    between atoms: _10  and  _13
REMARK    7  A    between atoms: _13  and  _14
REMARK    8  A    between atoms: _14  and  _15
REMARK    9  A    between atoms: _20  and  _22
REMARK   10  A    between atoms: _22  and  _23
REMARK   11  A    between atoms: _22  and  _25
REMARK   12  A    between atoms: _25  and  _26
REMARK   13  A    between atoms: _32  and  _34
REMARK   14  A    between atoms: _34  and  _35
REMARK   15  A    between atoms: _34  and  _37
REMARK   16  A    between atoms: _37  and  _38
REMARK   17  A    between atoms: _40  and  _42
REMARK   18  A    between atoms: _42  and  _43
REMARK   19  A    between atoms: _42  and  _45
REMARK   20  A    between atoms: _45  and  _46
REMARK   21  A    between atoms: _51  and  _53
REMARK   22  A    between atoms: _53  and  _54
REMARK   23  A    between atoms: _53  and  _56
REMARK   24  A    between atoms: _56  and  _57
REMARK   25  A    between atoms: _57  and  _58
REMARK   26  A    between atoms: _60  and  _62
REMARK   27  A    between atoms: _62  and  _63
REMARK   28  A    between atoms: _62  and  _65
REMARK   29  A    between atoms: _65  and  _66
REMARK   30  A    between atoms: _72  and  _74
REMARK   31  A    between atoms: _74  and  _75
REMARK   32  A    between atoms: _74  and  _77
REMARK   33  A    between atoms: _77  and  _78
REMARK   34  A    between atoms: _78  and  _79
REMARK   35  A    between atoms: _84  and  _86
REMARK   36  A    between atoms: _86  and  _87
REMARK   37  A    between atoms: _86  and  _89
REMARK   38  A    between atoms: _92  and  _94
REMARK   39  A    between atoms: _94  and  _95
REMARK   40  A    between atoms: _94  and  _97
REMARK   41  A    between atoms: _97  and  _98
REMARK   42  A    between atoms: _103  and  _104
REMARK   43  A    between atoms: _106  and  _108
REMARK   44  A    between atoms: _108  and  _109
REMARK   45  A    between atoms: _108  and  _111
REMARK   46  A    between atoms: _111  and  _112
REMARK   47  A    between atoms: _112  and  _113
REMARK   48  A    between atoms: _113  and  _114
REMARK   49  A    between atoms: _123  and  _125
REMARK   50  A    between atoms: _125  and  _126
REMARK   51  A    between atoms: _125  and  _128
REMARK   52  A    between atoms: _131  and  _133
REMARK   53  A    between atoms: _133  and  _134
REMARK   54  A    between atoms: _133  and  _136
REMARK   55  A    between atoms: _136  and  _137
REMARK   56  A    between atoms: _139  and  _141
REMARK   57  A    between atoms: _141  and  _142
REMARK   58  A    between atoms: _141  and  _144
REMARK   59  A    between atoms: _144  and  _145
REMARK   60  A    between atoms: _151  and  _153
REMARK   61  A    between atoms: _153  and  _154
REMARK   62  A    between atoms: _153  and  _156
REMARK   63  A    between atoms: _156  and  _157
REMARK   64  A    between atoms: _160  and  _162
REMARK   65  A    between atoms: _162  and  _163
REMARK   66  A    between atoms: _162  and  _165
REMARK   67  A    between atoms: _165  and  _166
REMARK   68  A    between atoms: _166  and  _167
REMARK   69  A    between atoms: _167  and  _168
REMARK   70  A    between atoms: _177  and  _179
REMARK   71  A    between atoms: _179  and  _180
REMARK   72  A    between atoms: _179  and  _182
REMARK   73  A    between atoms: _182  and  _183
REMARK   74  A    between atoms: _186  and  _188
REMARK   75  A    between atoms: _188  and  _189
REMARK   76  A    between atoms: _188  and  _191
REMARK   77  A    between atoms: _191  and  _192
REMARK   78  A    between atoms: _195  and  _197
REMARK   79  A    between atoms: _197  and  _198
REMARK   80  A    between atoms: _197  and  _200
REMARK   81  A    between atoms: _200  and  _201
REMARK   82  A    between atoms: _201  and  _202
REMARK   83  A    between atoms: _207  and  _209
REMARK   84  A    between atoms: _209  and  _210
REMARK   85  A    between atoms: _209  and  _212
REMARK   86  A    between atoms: _212  and  _213
REMARK   87  A    between atoms: _213  and  _214
REMARK   88  A    between atoms: _217  and  _219
REMARK   89  A    between atoms: _219  and  _220
REMARK   90  A    between atoms: _219  and  _222
REMARK   91  A    between atoms: _222  and  _223
REMARK   92  A    between atoms: _226  and  _228
REMARK   93  A    between atoms: _228  and  _229
REMARK   94  A    between atoms: _228  and  _231
REMARK   95  A    between atoms: _234  and  _236
REMARK   96  A    between atoms: _236  and  _237
REMARK   97  A    between atoms: _236  and  _239
REMARK   98  A    between atoms: _239  and  _240
REMARK   99  A    between atoms: _240  and  _241
REMARK  100  A    between atoms: _241  and  _242
REMARK  101  A    between atoms: _242  and  _243
REMARK  102  A    between atoms: _247  and  _249
REMARK  103  A    between atoms: _249  and  _250
REMARK  104  A    between atoms: _249  and  _252
REMARK  105  A    between atoms: _252  and  _253
REMARK  106  A    between atoms: _253  and  _254
REMARK  107  A    between atoms: _256  and  _258
REMARK  108  A    between atoms: _258  and  _259
REMARK  109  A    between atoms: _258  and  _261
REMARK  110  A    between atoms: _261  and  _262
REMARK  111  A    between atoms: _262  and  _263
REMARK  112  A    between atoms: _265  and  _267
REMARK  113  A    between atoms: _267  and  _268
REMARK  114  A    between atoms: _267  and  _270
REMARK  115  A    between atoms: _270  and  _271
REMARK  116  A    between atoms: _273  and  _275
REMARK  117  A    between atoms: _275  and  _276
REMARK  118  A    between atoms: _275  and  _278
REMARK  119  A    between atoms: _278  and  _279
REMARK  120  A    between atoms: _279  and  _280
REMARK  121  A    between atoms: _283  and  _285
REMARK  122  A    between atoms: _285  and  _286
REMARK  123  A    between atoms: _285  and  _288
REMARK  124  A    between atoms: _288  and  _289
REMARK  125  A    between atoms: _292  and  _294
REMARK  126  A    between atoms: _294  and  _295
REMARK  127  A    between atoms: _294  and  _297
REMARK  128  A    between atoms: _297  and  _298
REMARK  129  A    between atoms: _301  and  _303
REMARK  130  A    between atoms: _303  and  _304
REMARK  131  A    between atoms: _303  and  _306
REMARK  132  A    between atoms: _306  and  _307
REMARK  133  A    between atoms: _307  and  _308
REMARK  134  A    between atoms: _311  and  _313
REMARK  135  A    between atoms: _313  and  _314
REMARK  136  A    between atoms: _313  and  _316
REMARK  137  A    between atoms: _316  and  _317
REMARK  138  A    between atoms: _320  and  _322
REMARK  139  A    between atoms: _322  and  _323
REMARK  140  A    between atoms: _322  and  _325
REMARK  141  A    between atoms: _325  and  _326
REMARK  142  A    between atoms: _326  and  _327
REMARK  143  A    between atoms: _332  and  _334
REMARK  144  A    between atoms: _334  and  _335
REMARK  145  A    between atoms: _334  and  _337
REMARK  146  A    between atoms: _337  and  _338
REMARK  147  A    between atoms: _341  and  _343
REMARK  148  A    between atoms: _343  and  _344
REMARK  149  A    between atoms: _343  and  _346
REMARK  150  A    between atoms: _346  and  _347
REMARK  151  A    between atoms: _349  and  _351
REMARK  152  A    between atoms: _351  and  _352
REMARK  153  A    between atoms: _355  and  _357
REMARK  154  A    between atoms: _357  and  _358
REMARK  155  A    between atoms: _357  and  _360
REMARK  156  A    between atoms: _360  and  _361
REMARK  157  A    between atoms: _367  and  _369
REMARK  158  A    between atoms: _369  and  _370
REMARK  159  A    between atoms: _369  and  _372
REMARK  160  A    between atoms: _372  and  _373
REMARK  161  A    between atoms: _376  and  _378
REMARK  162  A    between atoms: _378  and  _379
REMARK  163  A    between atoms: _378  and  _381
REMARK  164  A    between atoms: _381  and  _382
REMARK  165  A    between atoms: _387  and  _389
REMARK  166  A    between atoms: _389  and  _390
REMARK  167  A    between atoms: _389  and  _392
REMARK  168  A    between atoms: _395  and  _397
REMARK  169  A    between atoms: _397  and  _398
REMARK  170  A    between atoms: _401  and  _403
REMARK  171  A    between atoms: _403  and  _404
REMARK  172  A    between atoms: _403  and  _406
REMARK  173  A    between atoms: _406  and  _407
REMARK  174  A    between atoms: _413  and  _415
REMARK  175  A    between atoms: _415  and  _416
REMARK  176  A    between atoms: _415  and  _418
REMARK  177  A    between atoms: _418  and  _419
REMARK  178  A    between atoms: _419  and  _420
REMARK  179  A    between atoms: _425  and  _427
REMARK  180  A    between atoms: _427  and  _428
REMARK  181  A    between atoms: _427  and  _430
REMARK  182  A    between atoms: _430  and  _431
REMARK  183  A    between atoms: _431  and  _432
REMARK  184  A    between atoms: _432  and  _433
REMARK  185  A    between atoms: _433  and  _434
REMARK  186  A    between atoms: _438  and  _440
REMARK  187  A    between atoms: _440  and  _441
REMARK  188  A    between atoms: _440  and  _443
REMARK  189  A    between atoms: _446  and  _448
REMARK  190  A    between atoms: _448  and  _449
REMARK  191  A    between atoms: _448  and  _451
REMARK  192  A    between atoms: _454  and  _456
REMARK  193  A    between atoms: _456  and  _457
REMARK  194  A    between atoms: _456  and  _459
REMARK  195  A    between atoms: _459  and  _460
REMARK  196  A    between atoms: _460  and  _461
REMARK  197  A    between atoms: _461  and  _462
REMARK  198  A    between atoms: _471  and  _473
REMARK  199  A    between atoms: _473  and  _474
REMARK  200  A    between atoms: _473  and  _476
REMARK  201  A    between atoms: _476  and  _477
REMARK  202  A    between atoms: _483  and  _485
REMARK  203  A    between atoms: _485  and  _486
REMARK  204  A    between atoms: _485  and  _488
REMARK  205  A    between atoms: _488  and  _489
REMARK  206  A    between atoms: _499  and  _501
REMARK  207  A    between atoms: _501  and  _502
REMARK  208  A    between atoms: _501  and  _504
REMARK  209  A    between atoms: _504  and  _505
REMARK  210  A    between atoms: _508  and  _510
REMARK  211  A    between atoms: _510  and  _511
REMARK  212  A    between atoms: _510  and  _513
REMARK  213  A    between atoms: _513  and  _514
REMARK  214  A    between atoms: _524  and  _526
REMARK  215  A    between atoms: _526  and  _527
REMARK  216  A    between atoms: _526  and  _529
REMARK  217  A    between atoms: _529  and  _530
REMARK  218  A    between atoms: _534  and  _535
REMARK  219  A    between atoms: _540  and  _542
REMARK  220  A    between atoms: _542  and  _543
REMARK  221  A    between atoms: _542  and  _545
REMARK  222  A    between atoms: _545  and  _546
REMARK  223  A    between atoms: _549  and  _551
REMARK  224  A    between atoms: _551  and  _552
REMARK  225  A    between atoms: _551  and  _554
REMARK  226  A    between atoms: _554  and  _555
REMARK  227  A    between atoms: _558  and  _560
REMARK  228  A    between atoms: _560  and  _561
REMARK  229  A    between atoms: _564  and  _566
REMARK  230  A    between atoms: _566  and  _567
REMARK  231  A    between atoms: _566  and  _569
REMARK  232  A    between atoms: _569  and  _570
REMARK  233  A    between atoms: _573  and  _575
REMARK  234  A    between atoms: _575  and  _576
REMARK  235  A    between atoms: _575  and  _578
REMARK  236  A    between atoms: _578  and  _579
REMARK  237  A    between atoms: _579  and  _580
REMARK  238  A    between atoms: _585  and  _587
REMARK  239  A    between atoms: _587  and  _588
REMARK  240  A    between atoms: _590  and  _592
REMARK  241  A    between atoms: _592  and  _593
REMARK  242  A    between atoms: _592  and  _595
REMARK  243  A    between atoms: _595  and  _596
REMARK  244  A    between atoms: _599  and  _601
REMARK  245  A    between atoms: _601  and  _602
REMARK  246  A    between atoms: _601  and  _604
REMARK  247  A    between atoms: _604  and  _605
REMARK  248  A    between atoms: _607  and  _609
REMARK  249  A    between atoms: _609  and  _610
REMARK  250  A    between atoms: _613  and  _615
REMARK  251  A    between atoms: _615  and  _616
REMARK  252  A    between atoms: _615  and  _618
REMARK  253  A    between atoms: _618  and  _619
REMARK  254  A    between atoms: _622  and  _624
REMARK  255  A    between atoms: _624  and  _625
REMARK  256  A    between atoms: _624  and  _627
REMARK  257  A    between atoms: _630  and  _632
REMARK  258  A    between atoms: _632  and  _633
REMARK  259  A    between atoms: _632  and  _635
REMARK  260  A    between atoms: _635  and  _636
REMARK  261  A    between atoms: _636  and  _637
REMARK  262  A    between atoms: _642  and  _644
REMARK  263  A    between atoms: _644  and  _645
REMARK  264  A    between atoms: _644  and  _647
REMARK  265  A    between atoms: _647  and  _648
REMARK  266  A    between atoms: _651  and  _653
REMARK  267  A    between atoms: _653  and  _654
REMARK  268  A    between atoms: _653  and  _656
REMARK  269  A    between atoms: _656  and  _657
REMARK                            x       y       z     vdW  Elec       q    Type
REMARK                         _______ _______ _______ _____ _____    ______ ____
ROOT
ATOM      1  C   PRO A   1     -15.454   3.984  -6.866  0.00  0.00    +0.239 C 
ATOM      2  O   PRO A   1     -16.008   3.902  -5.765  0.00  0.00    -0.274 OA
ATOM      3  N   ILE A   2     -15.390   5.128  -7.553  0.00  0.00    -0.298 N 
ATOM      4  H   ILE A   2     -14.908   5.153  -8.474  0.00  0.00    +0.150 HD
ENDROOT
BRANCH   1   6
ATOM      5  N   PRO A   1     -15.019   2.588  -8.939  0.00  0.00    -0.210 NA
ATOM      6  CA  PRO A   1     -14.790   2.740  -7.489  0.00  0.00    +0.149 C 
ATOM      7  CB  PRO A   1     -13.262   2.926  -7.395  0.00  0.00    +0.028 C 
ATOM      8  CG  PRO A   1     -12.719   2.219  -8.599  0.00  0.00    +0.021 C 
ATOM      9  CD  PRO A   1     -13.754   2.345  -9.675  0.00  0.00    +0.089 C 
ENDBRANCH   1   6
BRANCH   3  10
ATOM     10  CA  ILE A   2     -16.006   6.367  -7.006  0.00  0.00    +0.137 C 
BRANCH  10  11
ATOM     11  C   ILE A   2     -17.557   6.314  -7.008  0.00  0.00    +0.227 C 
ATOM     12  O   ILE A   2     -18.216   6.823  -6.068  0.00  0.00    -0.286 OA
ENDBRANCH  10  11
BRANCH  10  13
ATOM     13  CB  ILE A   2     -15.386   7.660  -7.644  0.00  0.00    +0.026 C 
ATOM     14  CG2 ILE A   2     -16.143   8.923  -7.264  0.00  0.00    +0.002 C 
BRANCH  13  15
ATOM     15  CG1 ILE A   2     -13.902   7.791  -7.263  0.00  0.00    +0.002 C 
ATOM     16  CD1 ILE A   2     -13.551   7.622  -5.734  0.00  0.00    +0.000 C 
ENDBRANCH  13  15
ENDBRANCH  10  13
ENDBRANCH   3  10
TORSDOF 5
REMARK  Name = ../refined-set-2016/2q7y/2q7y_pocket.pdb
REMARK  269 active torsions:
REMARK  status: ('A' for Active; 'I' for Inactive)
REMARK    1  A    between atoms: _1  and  _3
REMARK    2  A    between atoms: _3  and  _4
REMARK    3  A    between atoms: _3  and  _6
REMARK    4  A    between atoms: _8  and  _10
REMARK    5  A    between atoms: _10  and  _11
REMARK    6  A    between atoms: _10  and  _13
REMARK    7  A    between atoms: _13  and  _14
REMARK    8  A    between atoms: _14  and  _15
REMARK    9  A    between atoms: _20  and  _22
REMARK   10  A    between atoms: _22  and  _23
REMARK   11  A    between atoms: _22  and  _25
REMARK   12  A    between atoms: _25  and  _26
REMARK   13  A    between atoms: _32  and  _34
REMARK   14  A    between atoms: _34  and  _35
REMARK   15  A    between atoms: _34  and  _37
REMARK   16  A    between atoms: _37  and  _38
REMARK   17  A    between atoms: _40  and  _42
REMARK   18  A    between atoms: _42  and  _43
REMARK   19  A    between atoms: _42  and  _45
REMARK   20  A    between atoms: _45  and  _46
REMARK   21  A    between atoms: _51  and  _53
REMARK   22  A    between atoms: _53  and  _54
REMARK   23  A    between atoms: _53  and  _56
REMARK   24  A    between atoms: _56  and  _57
REMARK   25  A    between atoms: _57  and  _58
REMARK   26  A    between atoms: _60  and  _62
REMARK   27  A    between atoms: _62  and  _63
REMARK   28  A    between atoms: _62  and  _65
REMARK   29  A    between atoms: _65  and  _66
REMARK   30  A    between atoms: _72  and  _74
REMARK   31  A    between atoms: _74  and  _75
REMARK   32  A    between atoms: _74  and  _77
REMARK   33  A    between atoms: _77  and  _78
REMARK   34  A    between atoms: _78  and  _79
REMARK   35  A    between atoms: _84  and  _86
REMARK   36  A    between atoms: _86  and  _87
REMARK   37  A    between atoms: _86  and  _89
REMARK   38  A    between atoms: _92  and  _94
REMARK   39  A    between atoms: _94  and  _95
REMARK   40  A    between atoms: _94  and  _97
REMARK   41  A    between atoms: _97  and  _98
REMARK   42  A    between atoms: _103  and  _104
REMARK   43  A    between atoms: _106  and  _108
REMARK   44  A    between atoms: _108  and  _109
REMARK   45  A    between atoms: _108  and  _111
REMARK   46  A    between atoms: _111  and  _112
REMARK   47  A    between atoms: _112  and  _113
REMARK   48  A    between atoms: _113  and  _114
REMARK   49  A    between atoms: _123  and  _125
REMARK   50  A    between atoms: _125  and  _126
REMARK   51  A    between atoms: _125  and  _128
REMARK   52  A    between atoms: _131  and  _133
REMARK   53  A    between atoms: _133  and  _134
REMARK   54  A    between atoms: _133  and  _136
REMARK   55  A    between atoms: _136  and  _137
REMARK   56  A    between atoms: _139  and  _141
REMARK   57  A    between atoms: _141  and  _142
REMARK   58  A    between atoms: _141  and  _144
REMARK   59  A    between atoms: _144  and  _145
REMARK   60  A    between atoms: _151  and  _153
REMARK   61  A    between atoms: _153  and  _154
REMARK   62  A    between atoms: _153  and  _156
REMARK   63  A    between atoms: _156  and  _157
REMARK   64  A    between atoms: _160  and  _162
REMARK   65  A    between atoms: _162  and  _163
REMARK   66  A    between atoms: _162  and  _165
REMARK   67  A    between atoms: _165  and  _166
REMARK   68  A    between atoms: _166  and  _167
REMARK   69  A    between atoms: _167  and  _168
REMARK   70  A    between atoms: _177  and  _179
REMARK   71  A    between atoms: _179  and  _180
REMARK   72  A    between atoms: _179  and  _182
REMARK   73  A    between atoms: _182  and  _183
REMARK   74  A    between atoms: _186  and  _188
REMARK   75  A    between atoms: _188  and  _189
REMARK   76  A    between atoms: _188  and  _191
REMARK   77  A    between atoms: _191  and  _192
REMARK   78  A    between atoms: _195  and  _197
REMARK   79  A    between atoms: _197  and  _198
REMARK   80  A    between atoms: _197  and  _200
REMARK   81  A    between atoms: _200  and  _201
REMARK   82  A    between atoms: _201  and  _202
REMARK   83  A    between atoms: _207  and  _209
REMARK   84  A    between atoms: _209  and  _210
REMARK   85  A    between atoms: _209  and  _212
REMARK   86  A    between atoms: _212  and  _213
REMARK   87  A    between atoms: _213  and  _214
REMARK   88  A    between atoms: _217  and  _219
REMARK   89  A    between atoms: _219  and  _220
REMARK   90  A    between atoms: _219  and  _222
REMARK   91  A    between atoms: _222  and  _223
REMARK   92  A    between atoms: _226  and  _228
REMARK   93  A    between atoms: _228  and  _229
REMARK   94  A    between atoms: _228  and  _231
REMARK   95  A    between atoms: _234  and  _236
REMARK   96  A    between atoms: _236  and  _237
REMARK   97  A    between atoms: _236  and  _239
REMARK   98  A    between atoms: _239  and  _240
REMARK   99  A    between atoms: _240  and  _241
REMARK  100  A    between atoms: _241  and  _242
REMARK  101  A    between atoms: _242  and  _243
REMARK  102  A    between atoms: _247  and  _249
REMARK  103  A    between atoms: _249  and  _250
REMARK  104  A    between atoms: _249  and  _252
REMARK  105  A    between atoms: _252  and  _253
REMARK  106  A    between atoms: _253  and  _254
REMARK  107  A    between atoms: _256  and  _258
REMARK  108  A    between atoms: _258  and  _259
REMARK  109  A    between atoms: _258  and  _261
REMARK  110  A    between atoms: _261  and  _262
REMARK  111  A    between atoms: _262  and  _263
REMARK  112  A    between atoms: _265  and  _267
REMARK  113  A    between atoms: _267  and  _268
REMARK  114  A    between atoms: _267  and  _270
REMARK  115  A    between atoms: _270  and  _271
REMARK  116  A    between atoms: _273  and  _275
REMARK  117  A    between atoms: _275  and  _276
REMARK  118  A    between atoms: _275  and  _278
REMARK  119  A    between atoms: _278  and  _279
REMARK  120  A    between atoms: _279  and  _280
REMARK  121  A    between atoms: _283  and  _285
REMARK  122  A    between atoms: _285  and  _286
REMARK  123  A    between atoms: _285  and  _288
REMARK  124  A    between atoms: _288  and  _289
REMARK  125  A    between atoms: _292  and  _294
REMARK  126  A    between atoms: _294  and  _295
REMARK  127  A    between atoms: _294  and  _297
REMARK  128  A    between atoms: _297  and  _298
REMARK  129  A    between atoms: _301  and  _303
REMARK  130  A    between atoms: _303  and  _304
REMARK  131  A    between atoms: _303  and  _306
REMARK  132  A    between atoms: _306  and  _307
REMARK  133  A    between atoms: _307  and  _308
REMARK  134  A    between atoms: _311  and  _313
REMARK  135  A    between atoms: _313  and  _314
REMARK  136  A    between atoms: _313  and  _316
REMARK  137  A    between atoms: _316  and  _317
REMARK  138  A    between atoms: _320  and  _322
REMARK  139  A    between atoms: _322  and  _323
REMARK  140  A    between atoms: _322  and  _325
REMARK  141  A    between atoms: _325  and  _326
REMARK  142  A    between atoms: _326  and  _327
REMARK  143  A    between atoms: _332  and  _334
REMARK  144  A    between atoms: _334  and  _335
REMARK  145  A    between atoms: _334  and  _337
REMARK  146  A    between atoms: _337  and  _338
REMARK  147  A    between atoms: _341  and  _343
REMARK  148  A    between atoms: _343  and  _344
REMARK  149  A    between atoms: _343  and  _346
REMARK  150  A    between atoms: _346  and  _347
REMARK  151  A    between atoms: _349  and  _351
REMARK  152  A    between atoms: _351  and  _352
REMARK  153  A    between atoms: _355  and  _357
REMARK  154  A    between atoms: _357  and  _358
REMARK  155  A    between atoms: _357  and  _360
REMARK  156  A    between atoms: _360  and  _361
REMARK  157  A    between atoms: _367  and  _369
REMARK  158  A    between atoms: _369  and  _370
REMARK  159  A    between atoms: _369  and  _372
REMARK  160  A    between atoms: _372  and  _373
REMARK  161  A    between atoms: _376  and  _378
REMARK  162  A    between atoms: _378  and  _379
REMARK  163  A    between atoms: _378  and  _381
REMARK  164  A    between atoms: _381  and  _382
REMARK  165  A    between atoms: _387  and  _389
REMARK  166  A    between atoms: _389  and  _390
REMARK  167  A    between atoms: _389  and  _392
REMARK  168  A    between atoms: _395  and  _397
REMARK  169  A    between atoms: _397  and  _398
REMARK  170  A    between atoms: _401  and  _403
REMARK  171  A    between atoms: _403  and  _404
REMARK  172  A    between atoms: _403  and  _406
REMARK  173  A    between atoms: _406  and  _407
REMARK  174  A    between atoms: _413  and  _415
REMARK  175  A    between atoms: _415  and  _416
REMARK  176  A    between atoms: _415  and  _418
REMARK  177  A    between atoms: _418  and  _419
REMARK  178  A    between atoms: _419  and  _420
REMARK  179  A    between atoms: _425  and  _427
REMARK  180  A    between atoms: _427  and  _428
REMARK  181  A    between atoms: _427  and  _430
REMARK  182  A    between atoms: _430  and  _431
REMARK  183  A    between atoms: _431  and  _432
REMARK  184  A    between atoms: _432  and  _433
REMARK  185  A    between atoms: _433  and  _434
REMARK  186  A    between atoms: _438  and  _440
REMARK  187  A    between atoms: _440  and  _441
REMARK  188  A    between atoms: _440  and  _443
REMARK  189  A    between atoms: _446  and  _448
REMARK  190  A    between atoms: _448  and  _449
REMARK  191  A    between atoms: _448  and  _451
REMARK  192  A    between atoms: _454  and  _456
REMARK  193  A    between atoms: _456  and  _457
REMARK  194  A    between atoms: _456  and  _459
REMARK  195  A    between atoms: _459  and  _460
REMARK  196  A    between atoms: _460  and  _461
REMARK  197  A    between atoms: _461  and  _462
REMARK  198  A    between atoms: _471  and  _473
REMARK  199  A    between atoms: _473  and  _474
REMARK  200  A    between atoms: _473  and  _476
REMARK  201  A    between atoms: _476  and  _477
REMARK  202  A    between atoms: _483  and  _485
REMARK  203  A    between atoms: _485  and  _486
REMARK  204  A    between atoms: _485  and  _488
REMARK  205  A    between atoms: _488  and  _489
REMARK  206  A    between atoms: _499  and  _501
REMARK  207  A    between atoms: _501  and  _502
REMARK  208  A    between atoms: _501  and  _504
REMARK  209  A    between atoms: _504  and  _505
REMARK  210  A    between atoms: _508  and  _510
REMARK  211  A    between atoms: _510  and  _511
REMARK  212  A    between atoms: _510  and  _513
REMARK  213  A    between atoms: _513  and  _514
REMARK  214  A    between atoms: _524  and  _526
REMARK  215  A    between atoms: _526  and  _527
REMARK  216  A    between atoms: _526  and  _529
REMARK  217  A    between atoms: _529  and  _530
REMARK  218  A    between atoms: _534  and  _535
REMARK  219  A    between atoms: _540  and  _542
REMARK  220  A    between atoms: _542  and  _543
REMARK  221  A    between atoms: _542  and  _545
REMARK  222  A    between atoms: _545  and  _546
REMARK  223  A    between atoms: _549  and  _551
REMARK  224  A    between atoms: _551  and  _552
REMARK  225  A    between atoms: _551  and  _554
REMARK  226  A    between atoms: _554  and  _555
REMARK  227  A    between atoms: _558  and  _560
REMARK  228  A    between atoms: _560  and  _561
REMARK  229  A    between atoms: _564  and  _566
REMARK  230  A    between atoms: _566  and  _567
REMARK  231  A    between atoms: _566  and  _569
REMARK  232  A    between atoms: _569  and  _570
REMARK  233  A    between atoms: _573  and  _575
REMARK  234  A    between atoms: _575  and  _576
REMARK  235  A    between atoms: _575  and  _578
REMARK  236  A    between atoms: _578  and  _579
REMARK  237  A    between atoms: _579  and  _580
REMARK  238  A    between atoms: _585  and  _587
REMARK  239  A    between atoms: _587  and  _588
REMARK  240  A    between atoms: _590  and  _592
REMARK  241  A    between atoms: _592  and  _593
REMARK  242  A    between atoms: _592  and  _595
REMARK  243  A    between atoms: _595  and  _596
REMARK  244  A    between atoms: _599  and  _601
REMARK  245  A    between atoms: _601  and  _602
REMARK  246  A    between atoms: _601  and  _604
REMARK  247  A    between atoms: _604  and  _605
REMARK  248  A    between atoms: _607  and  _609
REMARK  249  A    between atoms: _609  and  _610
REMARK  250  A    between atoms: _613  and  _615
REMARK  251  A    between atoms: _615  and  _616
REMARK  252  A    between atoms: _615  and  _618
REMARK  253  A    between atoms: _618  and  _619
REMARK  254  A    between atoms: _622  and  _624
REMARK  255  A    between atoms: _624  and  _625
REMARK  256  A    between atoms: _624  and  _627
REMARK  257  A    between atoms: _630  and  _632
REMARK  258  A    between atoms: _632  and  _633
REMARK  259  A    between atoms: _632  and  _635
REMARK  260  A    between atoms: _635  and  _636
REMARK  261  A    between atoms: _636  and  _637
REMARK  262  A    between atoms: _642  and  _644
REMARK  263  A    between atoms: _644  and  _645
REMARK  264  A    between atoms: _644  and  _647
REMARK  265  A    between atoms: _647  and  _648
REMARK  266  A    between atoms: _651  and  _653
REMARK  267  A    between atoms: _653  and  _654
REMARK  268  A    between atoms: _653  and  _656
REMARK  269  A    between atoms: _656  and  _657
REMARK                            x       y       z     vdW  Elec       q    Type
REMARK                         _______ _______ _______ _____ _____    ______ ____
ROOT
ATOM      1  CA  LEU A   1     -18.142   4.853  -2.873  0.00  0.00    +0.133 C 
ENDROOT
BRANCH   1   2
ATOM      2  N   LEU A   1     -18.300   4.059  -4.102  0.00  0.00    -0.239 NA
ATOM      3  H   LEU A   1     -17.583   4.140  -4.851  0.00  0.00    +0.142 HD
ENDBRANCH   1   2
BRANCH   1   4
ATOM      4  C   LEU A   1     -19.280   5.858  -2.613  0.00  0.00    +0.224 C 
ATOM      5  O   LEU A   1     -19.759   5.990  -1.478  0.00  0.00    -0.287 OA
ENDBRANCH   1   4
BRANCH   1   6
ATOM      6  CB  LEU A   1     -16.797   5.586  -2.879  0.00  0.00    +0.025 C 
BRANCH   6   7
ATOM      7  CG  LEU A   1     -15.554   4.713  -2.688  0.00  0.00    +0.002 C 
ATOM      8  CD2 LEU A   1     -15.582   4.038  -1.307  0.00  0.00    +0.000 C 
ATOM      9  CD1 LEU A   1     -14.242   5.511  -2.910  0.00  0.00    +0.000 C 
ENDBRANCH   6   7
ENDBRANCH   1   6
TORSDOF 4
REMARK  Name = ../refined-set-2016/2q7y/2q7y_pocket.pdb
REMARK  269 active torsions:
REMARK  status: ('A' for Active; 'I' for Inactive)
REMARK    1  A    between atoms: _1  and  _3
REMARK    2  A    between atoms: _3  and  _4
REMARK    3  A    between atoms: _3  and  _6
REMARK    4  A    between atoms: _8  and  _10
REMARK    5  A    between atoms: _10  and  _11
REMARK    6  A    between atoms: _10  and  _13
REMARK    7  A    between atoms: _13  and  _14
REMARK    8  A    between atoms: _14  and  _15
REMARK    9  A    between atoms: _20  and  _22
REMARK   10  A    between atoms: _22  and  _23
REMARK   11  A    between atoms: _22  and  _25
REMARK   12  A    between atoms: _25  and  _26
REMARK   13  A    between atoms: _32  and  _34
REMARK   14  A    between atoms: _34  and  _35
REMARK   15  A    between atoms: _34  and  _37
REMARK   16  A    between atoms: _37  and  _38
REMARK   17  A    between atoms: _40  and  _42
REMARK   18  A    between atoms: _42  and  _43
REMARK   19  A    between atoms: _42  and  _45
REMARK   20  A    between atoms: _45  and  _46
REMARK   21  A    between atoms: _51  and  _53
REMARK   22  A    between atoms: _53  and  _54
REMARK   23  A    between atoms: _53  and  _56
REMARK   24  A    between atoms: _56  and  _57
REMARK   25  A    between atoms: _57  and  _58
REMARK   26  A    between atoms: _60  and  _62
REMARK   27  A    between atoms: _62  and  _63
REMARK   28  A    between atoms: _62  and  _65
REMARK   29  A    between atoms: _65  and  _66
REMARK   30  A    between atoms: _72  and  _74
REMARK   31  A    between atoms: _74  and  _75
REMARK   32  A    between atoms: _74  and  _77
REMARK   33  A    between atoms: _77  and  _78
REMARK   34  A    between atoms: _78  and  _79
REMARK   35  A    between atoms: _84  and  _86
REMARK   36  A    between atoms: _86  and  _87
REMARK   37  A    between atoms: _86  and  _89
REMARK   38  A    between atoms: _92  and  _94
REMARK   39  A    between atoms: _94  and  _95
REMARK   40  A    between atoms: _94  and  _97
REMARK   41  A    between atoms: _97  and  _98
REMARK   42  A    between atoms: _103  and  _104
REMARK   43  A    between atoms: _106  and  _108
REMARK   44  A    between atoms: _108  and  _109
REMARK   45  A    between atoms: _108  and  _111
REMARK   46  A    between atoms: _111  and  _112
REMARK   47  A    between atoms: _112  and  _113
REMARK   48  A    between atoms: _113  and  _114
REMARK   49  A    between atoms: _123  and  _125
REMARK   50  A    between atoms: _125  and  _126
REMARK   51  A    between atoms: _125  and  _128
REMARK   52  A    between atoms: _131  and  _133
REMARK   53  A    between atoms: _133  and  _134
REMARK   54  A    between atoms: _133  and  _136
REMARK   55  A    between atoms: _136  and  _137
REMARK   56  A    between atoms: _139  and  _141
REMARK   57  A    between atoms: _141  and  _142
REMARK   58  A    between atoms: _141  and  _144
REMARK   59  A    between atoms: _144  and  _145
REMARK   60  A    between atoms: _151  and  _153
REMARK   61  A    between atoms: _153  and  _154
REMARK   62  A    between atoms: _153  and  _156
REMARK   63  A    between atoms: _156  and  _157
REMARK   64  A    between atoms: _160  and  _162
REMARK   65  A    between atoms: _162  and  _163
REMARK   66  A    between atoms: _162  and  _165
REMARK   67  A    between atoms: _165  and  _166
REMARK   68  A    between atoms: _166  and  _167
REMARK   69  A    between atoms: _167  and  _168
REMARK   70  A    between atoms: _177  and  _179
REMARK   71  A    between atoms: _179  and  _180
REMARK   72  A    between atoms: _179  and  _182
REMARK   73  A    between atoms: _182  and  _183
REMARK   74  A    between atoms: _186  and  _188
REMARK   75  A    between atoms: _188  and  _189
REMARK   76  A    between atoms: _188  and  _191
REMARK   77  A    between atoms: _191  and  _192
REMARK   78  A    between atoms: _195  and  _197
REMARK   79  A    between atoms: _197  and  _198
REMARK   80  A    between atoms: _197  and  _200
REMARK   81  A    between atoms: _200  and  _201
REMARK   82  A    between atoms: _201  and  _202
REMARK   83  A    between atoms: _207  and  _209
REMARK   84  A    between atoms: _209  and  _210
REMARK   85  A    between atoms: _209  and  _212
REMARK   86  A    between atoms: _212  and  _213
REMARK   87  A    between atoms: _213  and  _214
REMARK   88  A    between atoms: _217  and  _219
REMARK   89  A    between atoms: _219  and  _220
REMARK   90  A    between atoms: _219  and  _222
REMARK   91  A    between atoms: _222  and  _223
REMARK   92  A    between atoms: _226  and  _228
REMARK   93  A    between atoms: _228  and  _229
REMARK   94  A    between atoms: _228  and  _231
REMARK   95  A    between atoms: _234  and  _236
REMARK   96  A    between atoms: _236  and  _237
REMARK   97  A    between atoms: _236  and  _239
REMARK   98  A    between atoms: _239  and  _240
REMARK   99  A    between atoms: _240  and  _241
REMARK  100  A    between atoms: _241  and  _242
REMARK  101  A    between atoms: _242  and  _243
REMARK  102  A    between atoms: _247  and  _249
REMARK  103  A    between atoms: _249  and  _250
REMARK  104  A    between atoms: _249  and  _252
REMARK  105  A    between atoms: _252  and  _253
REMARK  106  A    between atoms: _253  and  _254
REMARK  107  A    between atoms: _256  and  _258
REMARK  108  A    between atoms: _258  and  _259
REMARK  109  A    between atoms: _258  and  _261
REMARK  110  A    between atoms: _261  and  _262
REMARK  111  A    between atoms: _262  and  _263
REMARK  112  A    between atoms: _265  and  _267
REMARK  113  A    between atoms: _267  and  _268
REMARK  114  A    between atoms: _267  and  _270
REMARK  115  A    between atoms: _270  and  _271
REMARK  116  A    between atoms: _273  and  _275
REMARK  117  A    between atoms: _275  and  _276
REMARK  118  A    between atoms: _275  and  _278
REMARK  119  A    between atoms: _278  and  _279
REMARK  120  A    between atoms: _279  and  _280
REMARK  121  A    between atoms: _283  and  _285
REMARK  122  A    between atoms: _285  and  _286
REMARK  123  A    between atoms: _285  and  _288
REMARK  124  A    between atoms: _288  and  _289
REMARK  125  A    between atoms: _292  and  _294
REMARK  126  A    between atoms: _294  and  _295
REMARK  127  A    between atoms: _294  and  _297
REMARK  128  A    between atoms: _297  and  _298
REMARK  129  A    between atoms: _301  and  _303
REMARK  130  A    between atoms: _303  and  _304
REMARK  131  A    between atoms: _303  and  _306
REMARK  132  A    between atoms: _306  and  _307
REMARK  133  A    between atoms: _307  and  _308
REMARK  134  A    between atoms: _311  and  _313
REMARK  135  A    between atoms: _313  and  _314
REMARK  136  A    between atoms: _313  and  _316
REMARK  137  A    between atoms: _316  and  _317
REMARK  138  A    between atoms: _320  and  _322
REMARK  139  A    between atoms: _322  and  _323
REMARK  140  A    between atoms: _322  and  _325
REMARK  141  A    between atoms: _325  and  _326
REMARK  142  A    between atoms: _326  and  _327
REMARK  143  A    between atoms: _332  and  _334
REMARK  144  A    between atoms: _334  and  _335
REMARK  145  A    between atoms: _334  and  _337
REMARK  146  A    between atoms: _337  and  _338
REMARK  147  A    between atoms: _341  and  _343
REMARK  148  A    between atoms: _343  and  _344
REMARK  149  A    between atoms: _343  and  _346
REMARK  150  A    between atoms: _346  and  _347
REMARK  151  A    between atoms: _349  and  _351
REMARK  152  A    between atoms: _351  and  _352
REMARK  153  A    between atoms: _355  and  _357
REMARK  154  A    between atoms: _357  and  _358
REMARK  155  A    between atoms: _357  and  _360
REMARK  156  A    between atoms: _360  and  _361
REMARK  157  A    between atoms: _367  and  _369
REMARK  158  A    between atoms: _369  and  _370
REMARK  159  A    between atoms: _369  and  _372
REMARK  160  A    between atoms: _372  and  _373
REMARK  161  A    between atoms: _376  and  _378
REMARK  162  A    between atoms: _378  and  _379
REMARK  163  A    between atoms: _378  and  _381
REMARK  164  A    between atoms: _381  and  _382
REMARK  165  A    between atoms: _387  and  _389
REMARK  166  A    between atoms: _389  and  _390
REMARK  167  A    between atoms: _389  and  _392
REMARK  168  A    between atoms: _395  and  _397
REMARK  169  A    between atoms: _397  and  _398
REMARK  170  A    between atoms: _401  and  _403
REMARK  171  A    between atoms: _403  and  _404
REMARK  172  A    between atoms: _403  and  _406
REMARK  173  A    between atoms: _406  and  _407
REMARK  174  A    between atoms: _413  and  _415
REMARK  175  A    between atoms: _415  and  _416
REMARK  176  A    between atoms: _415  and  _418
REMARK  177  A    between atoms: _418  and  _419
REMARK  178  A    between atoms: _419  and  _420
REMARK  179  A    between atoms: _425  and  _427
REMARK  180  A    between atoms: _427  and  _428
REMARK  181  A    between atoms: _427  and  _430
REMARK  182  A    between atoms: _430  and  _431
REMARK  183  A    between atoms: _431  and  _432
REMARK  184  A    between atoms: _432  and  _433
REMARK  185  A    between atoms: _433  and  _434
REMARK  186  A    between atoms: _438  and  _440
REMARK  187  A    between atoms: _440  and  _441
REMARK  188  A    between atoms: _440  and  _443
REMARK  189  A    between atoms: _446  and  _448
REMARK  190  A    between atoms: _448  and  _449
REMARK  191  A    between atoms: _448  and  _451
REMARK  192  A    between atoms: _454  and  _456
REMARK  193  A    between atoms: _456  and  _457
REMARK  194  A    between atoms: _456  and  _459
REMARK  195  A    between atoms: _459  and  _460
REMARK  196  A    between atoms: _460  and  _461
REMARK  197  A    between atoms: _461  and  _462
REMARK  198  A    between atoms: _471  and  _473
REMARK  199  A    between atoms: _473  and  _474
REMARK  200  A    between atoms: _473  and  _476
REMARK  201  A    between atoms: _476  and  _477
REMARK  202  A    between atoms: _483  and  _485
REMARK  203  A    between atoms: _485  and  _486
REMARK  204  A    between atoms: _485  and  _488
REMARK  205  A    between atoms: _488  and  _489
REMARK  206  A    between atoms: _499  and  _501
REMARK  207  A    between atoms: _501  and  _502
REMARK  208  A    between atoms: _501  and  _504
REMARK  209  A    between atoms: _504  and  _505
REMARK  210  A    between atoms: _508  and  _510
REMARK  211  A    between atoms: _510  and  _511
REMARK  212  A    between atoms: _510  and  _513
REMARK  213  A    between atoms: _513  and  _514
REMARK  214  A    between atoms: _524  and  _526
REMARK  215  A    between atoms: _526  and  _527
REMARK  216  A    between atoms: _526  and  _529
REMARK  217  A    between atoms: _529  and  _530
REMARK  218  A    between atoms: _534  and  _535
REMARK  219  A    between atoms: _540  and  _542
REMARK  220  A    between atoms: _542  and  _543
REMARK  221  A    between atoms: _542  and  _545
REMARK  222  A    between atoms: _545  and  _546
REMARK  223  A    between atoms: _549  and  _551
REMARK  224  A    between atoms: _551  and  _552
REMARK  225  A    between atoms: _551  and  _554
REMARK  226  A    between atoms: _554  and  _555
REMARK  227  A    between atoms: _558  and  _560
REMARK  228  A    between atoms: _560  and  _561
REMARK  229  A    between atoms: _564  and  _566
REMARK  230  A    between atoms: _566  and  _567
REMARK  231  A    between atoms: _566  and  _569
REMARK  232  A    between atoms: _569  and  _570
REMARK  233  A    between atoms: _573  and  _575
REMARK  234  A    between atoms: _575  and  _576
REMARK  235  A    between atoms: _575  and  _578
REMARK  236  A    between atoms: _578  and  _579
REMARK  237  A    between atoms: _579  and  _580
REMARK  238  A    between atoms: _585  and  _587
REMARK  239  A    between atoms: _587  and  _588
REMARK  240  A    between atoms: _590  and  _592
REMARK  241  A    between atoms: _592  and  _593
REMARK  242  A    between atoms: _592  and  _595
REMARK  243  A    between atoms: _595  and  _596
REMARK  244  A    between atoms: _599  and  _601
REMARK  245  A    between atoms: _601  and  _602
REMARK  246  A    between atoms: _601  and  _604
REMARK  247  A    between atoms: _604  and  _605
REMARK  248  A    between atoms: _607  and  _609
REMARK  249  A    between atoms: _609  and  _610
REMARK  250  A    between atoms: _613  and  _615
REMARK  251  A    between atoms: _615  and  _616
REMARK  252  A    between atoms: _615  and  _618
REMARK  253  A    between atoms: _618  and  _619
REMARK  254  A    between atoms: _622  and  _624
REMARK  255  A    between atoms: _624  and  _625
REMARK  256  A    between atoms: _624  and  _627
REMARK  257  A    between atoms: _630  and  _632
REMARK  258  A    between atoms: _632  and  _633
REMARK  259  A    between atoms: _632  and  _635
REMARK  260  A    between atoms: _635  and  _636
REMARK  261  A    between atoms: _636  and  _637
REMARK  262  A    between atoms: _642  and  _644
REMARK  263  A    between atoms: _644  and  _645
REMARK  264  A    between atoms: _644  and  _647
REMARK  265  A    between atoms: _647  and  _648
REMARK  266  A    between atoms: _651  and  _653
REMARK  267  A    between atoms: _653  and  _654
REMARK  268  A    between atoms: _653  and  _656
REMARK  269  A    between atoms: _656  and  _657
REMARK                            x       y       z     vdW  Elec       q    Type
REMARK                         _______ _______ _______ _____ _____    ______ ____
ROOT
ATOM      1  C   THR A   5     -20.573   9.313   4.345  0.00  0.00    +0.243 C 
ATOM      2  O   THR A   5     -19.875  10.131   4.911  0.00  0.00    -0.273 OA
ATOM      3  N   SER A   6     -21.308   9.607   3.276  0.00  0.00    -0.295 N 
ATOM      4  H   SER A   6     -21.888   8.866   2.832  0.00  0.00    +0.150 HD
ENDROOT
BRANCH   1   5
ATOM      5  CA  THR A   5     -20.643   7.877   4.830  0.00  0.00    +0.176 C 
BRANCH   5   8
ATOM      6  C   GLY A   4     -23.010   7.893   5.529  0.00  0.00    +0.243 C 
ATOM      7  O   GLY A   4     -22.837   8.764   6.388  0.00  0.00    -0.273 OA
ATOM      8  N   THR A   5     -22.024   7.398   4.772  0.00  0.00    -0.295 N 
ATOM      9  H   THR A   5     -22.252   6.632   4.107  0.00  0.00    +0.150 HD
BRANCH   6  10
ATOM     10  CA  GLY A   4     -24.393   7.318   5.279  0.00  0.00    +0.176 C 
BRANCH  10  12
ATOM     11  C   GLN A   3     -24.793   8.182   2.988  0.00  0.00    +0.241 C 
ATOM     12  N   GLY A   4     -24.731   7.166   3.862  0.00  0.00    -0.295 N 
ATOM     13  H   GLY A   4     -24.936   6.209   3.511  0.00  0.00    +0.150 HD
ATOM     14  O   GLN A   3     -24.595   9.365   3.285  0.00  0.00    -0.273 OA
BRANCH  11  15
ATOM     15  CA  GLN A   3     -25.130   7.811   1.544  0.00  0.00    +0.149 C 
BRANCH  15  18
ATOM     16  C   ASP A   2     -23.247   6.317   1.075  0.00  0.00    +0.241 C 
ATOM     17  O   ASP A   2     -22.408   7.173   1.356  0.00  0.00    -0.273 OA
ATOM     18  N   GLN A   3     -24.561   6.532   1.144  0.00  0.00    -0.297 N 
ATOM     19  H   GLN A   3     -25.207   5.753   0.902  0.00  0.00    +0.150 HD
BRANCH  16  20
ATOM     20  CA  ASP A   2     -22.825   4.911   0.597  0.00  0.00    +0.160 C 
BRANCH  20  22
ATOM     21  C   ALA A   1     -23.788   4.648  -1.676  0.00  0.00    +0.238 C 
ATOM     22  N   ASP A   2     -22.771   4.932  -0.869  0.00  0.00    -0.297 N 
ATOM     23  H   ASP A   2     -21.866   5.189  -1.311  0.00  0.00    +0.150 HD
ATOM     24  O   ALA A   1     -24.879   4.298  -1.278  0.00  0.00    -0.274 OA
BRANCH  21  25
ATOM     25  CA  ALA A   1     -23.526   4.802  -3.171  0.00  0.00    +0.145 C 
ATOM     26  CB  ALA A   1     -23.530   3.443  -3.897  0.00  0.00    +0.028 C 
BRANCH  25  27
ATOM     27  N   ALA A   1     -22.296   5.536  -3.451  0.00  0.00    -0.238 NA
ATOM     28  H   ALA A   1     -21.474   5.024  -3.830  0.00  0.00    +0.142 HD
ENDBRANCH  25  27
ENDBRANCH  21  25
ENDBRANCH  20  22
BRANCH  20  29
ATOM     29  CB  ASP A   2     -21.442   4.522   1.144  0.00  0.00    +0.143 C 
BRANCH  29  30
ATOM     30  CG  ASP A   2     -21.413   4.377   2.668  0.00  0.00    +0.367 C 
ATOM     31  OD2 ASP A   2     -22.473   4.528   3.326  0.00  0.00    -0.246 OA
ATOM     32  OD1 ASP A   2     -20.309   4.112   3.206  0.00  0.00    -0.246 OA
ENDBRANCH  29  30
ENDBRANCH  20  29
ENDBRANCH  16  20
ENDBRANCH  15  18
BRANCH  15  33
ATOM     33  CB  GLN A   3     -26.628   7.760   1.335  0.00  0.00    +0.039 C 
BRANCH  33  34
ATOM     34  CG  GLN A   3     -27.341   9.100   1.340  0.00  0.00    +0.087 C 
BRANCH  34  35
ATOM     35  CD  GLN A   3     -28.857   8.938   1.225  0.00  0.00    +0.219 C 
ATOM     36  OE1 GLN A   3     -29.377   7.811   1.184  0.00  0.00    -0.275 OA
ATOM     37  NE2 GLN A   3     -29.576  10.067   1.171  0.00  0.00    -0.329 N 
ATOM     38 HE21 GLN A   3     -29.098  10.990   1.209  0.00  0.00    +0.145 HD
ATOM     39 HE22 GLN A   3     -30.612  10.020   1.092  0.00  0.00    +0.145 HD
ENDBRANCH  34  35
ENDBRANCH  33  34
ENDBRANCH  15  33
ENDBRANCH  11  15
ENDBRANCH  10  12
ENDBRANCH   6  10
ENDBRANCH   5   8
BRANCH   5  40
ATOM     40  CB  THR A   5     -19.713   6.985   3.943  0.00  0.00    +0.137 C 
ATOM     41  CG2 THR A   5     -18.353   7.635   3.681  0.00  0.00    +0.034 C 
BRANCH  40  42
ATOM     42  OG1 THR A   5     -19.484   5.744   4.617  0.00  0.00    -0.382 OA
ATOM     43  HG1 THR A   5     -20.349   5.285   4.764  0.00  0.00    +0.210 HD
ENDBRANCH  40  42
ENDBRANCH   5  40
ENDBRANCH   1   5
BRANCH   3  44
ATOM     44  CA  SER A   6     -21.312  10.951   2.719  0.00  0.00    +0.178 C 
BRANCH  44  45
ATOM     45  C   SER A   6     -21.860  11.960   3.735  0.00  0.00    +0.243 C 
ATOM     46  N   ALA A   7     -22.984  11.617   4.369  0.00  0.00    -0.297 N 
ATOM     47  H   ALA A   7     -23.460  10.734   4.095  0.00  0.00    +0.150 HD
ATOM     48  O   SER A   6     -21.252  13.027   3.927  0.00  0.00    -0.273 OA
BRANCH  46  49
ATOM     49  CA  ALA A   7     -23.578  12.434   5.437  0.00  0.00    +0.149 C 
ATOM     50  CB  ALA A   7     -24.800  11.797   5.995  0.00  0.00    +0.031 C 
BRANCH  49  51
ATOM     51  C   ALA A   7     -22.597  12.663   6.563  0.00  0.00    +0.241 C 
ATOM     52  O   ALA A   7     -22.490  13.781   7.057  0.00  0.00    -0.273 OA
ATOM     53  N   THR A   8     -21.885  11.602   6.976  0.00  0.00    -0.295 N 
ATOM     54  H   THR A   8     -22.036  10.684   6.511  0.00  0.00    +0.150 HD
BRANCH  53  55
ATOM     55  CA  THR A   8     -20.891  11.695   8.072  0.00  0.00    +0.176 C 
BRANCH  55  56
ATOM     56  C   THR A   8     -19.696  12.566   7.682  0.00  0.00    +0.243 C 
ATOM     57  O   THR A   8     -19.268  13.436   8.438  0.00  0.00    -0.273 OA
ATOM     58  N   VAL A   9     -19.144  12.334   6.499  0.00  0.00    -0.297 N 
ATOM     59  H   VAL A   9     -19.496  11.545   5.920  0.00  0.00    +0.150 HD
BRANCH  58  60
ATOM     60  CA  VAL A   9     -18.053  13.160   5.991  0.00  0.00    +0.149 C 
BRANCH  60  61
ATOM     61  C   VAL A   9     -18.444  14.653   5.902  0.00  0.00    +0.241 C 
ATOM     62  O   VAL A   9     -17.637  15.529   6.286  0.00  0.00    -0.273 OA
ATOM     63  N   GLN A  10     -19.649  14.957   5.403  0.00  0.00    -0.298 N 
ATOM     64  H   GLN A  10     -20.262  14.185   5.071  0.00  0.00    +0.150 HD
BRANCH  63  65
ATOM     65  CA  GLN A  10     -20.139  16.341   5.306  0.00  0.00    +0.137 C 
BRANCH  65  66
ATOM     66  C   GLN A  10     -20.200  16.983   6.694  0.00  0.00    +0.227 C 
ATOM     67  O   GLN A  10     -19.753  18.118   6.886  0.00  0.00    -0.286 OA
ENDBRANCH  65  66
BRANCH  65  68
ATOM     68  CB  GLN A  10     -21.541  16.429   4.647  0.00  0.00    +0.037 C 
BRANCH  68  69
ATOM     69  CG  GLN A  10     -21.571  16.053   3.151  0.00  0.00    +0.087 C 
BRANCH  69  70
ATOM     70  CD  GLN A  10     -22.977  15.962   2.553  0.00  0.00    +0.219 C 
ATOM     71  OE1 GLN A  10     -23.813  16.838   2.781  0.00  0.00    -0.275 OA
ATOM     72  NE2 GLN A  10     -23.239  14.892   1.768  0.00  0.00    -0.329 N 
ATOM     73 HE21 GLN A  10     -22.503  14.176   1.602  0.00  0.00    +0.145 HD
ATOM     74 HE22 GLN A  10     -24.176  14.785   1.330  0.00  0.00    +0.145 HD
ENDBRANCH  69  70
ENDBRANCH  68  69
ENDBRANCH  65  68
ENDBRANCH  63  65
ENDBRANCH  60  61
BRANCH  60  75
ATOM     75  CB  VAL A   9     -17.528  12.624   4.638  0.00  0.00    +0.027 C 
ATOM     76  CG2 VAL A   9     -16.899  11.258   4.824  0.00  0.00    +0.002 C 
ATOM     77  CG1 VAL A   9     -16.475  13.551   4.070  0.00  0.00    +0.002 C 
ENDBRANCH  60  75
ENDBRANCH  58  60
ENDBRANCH  55  56
BRANCH  55  78
ATOM     78  CB  THR A   8     -20.377  10.298   8.481  0.00  0.00    +0.137 C 
ATOM     79  CG2 THR A   8     -19.333  10.405   9.629  0.00  0.00    +0.034 C 
BRANCH  78  80
ATOM     80  OG1 THR A   8     -21.474   9.501   8.917  0.00  0.00    -0.382 OA
ATOM     81  HG1 THR A   8     -22.129   9.411   8.180  0.00  0.00    +0.210 HD
ENDBRANCH  78  80
ENDBRANCH  55  78
ENDBRANCH  53  55
ENDBRANCH  49  51
ENDBRANCH  46  49
ENDBRANCH  44  45
BRANCH  44  82
ATOM     82  CB  SER A   6     -22.099  10.970   1.419  0.00  0.00    +0.166 C 
BRANCH  82  83
ATOM     83  OG  SER A   6     -22.213  12.284   0.921  0.00  0.00    -0.380 OA
ATOM     84  H   SER A   6     -22.728  12.272   0.076  0.00  0.00    +0.211 HD
ENDBRANCH  82  83
ENDBRANCH  44  82
ENDBRANCH   3  44
TORSDOF 35
REMARK  Name = ../refined-set-2016/2q7y/2q7y_pocket.pdb
REMARK  269 active torsions:
REMARK  status: ('A' for Active; 'I' for Inactive)
REMARK    1  A    between atoms: _1  and  _3
REMARK    2  A    between atoms: _3  and  _4
REMARK    3  A    between atoms: _3  and  _6
REMARK    4  A    between atoms: _8  and  _10
REMARK    5  A    between atoms: _10  and  _11
REMARK    6  A    between atoms: _10  and  _13
REMARK    7  A    between atoms: _13  and  _14
REMARK    8  A    between atoms: _14  and  _15
REMARK    9  A    between atoms: _20  and  _22
REMARK   10  A    between atoms: _22  and  _23
REMARK   11  A    between atoms: _22  and  _25
REMARK   12  A    between atoms: _25  and  _26
REMARK   13  A    between atoms: _32  and  _34
REMARK   14  A    between atoms: _34  and  _35
REMARK   15  A    between atoms: _34  and  _37
REMARK   16  A    between atoms: _37  and  _38
REMARK   17  A    between atoms: _40  and  _42
REMARK   18  A    between atoms: _42  and  _43
REMARK   19  A    between atoms: _42  and  _45
REMARK   20  A    between atoms: _45  and  _46
REMARK   21  A    between atoms: _51  and  _53
REMARK   22  A    between atoms: _53  and  _54
REMARK   23  A    between atoms: _53  and  _56
REMARK   24  A    between atoms: _56  and  _57
REMARK   25  A    between atoms: _57  and  _58
REMARK   26  A    between atoms: _60  and  _62
REMARK   27  A    between atoms: _62  and  _63
REMARK   28  A    between atoms: _62  and  _65
REMARK   29  A    between atoms: _65  and  _66
REMARK   30  A    between atoms: _72  and  _74
REMARK   31  A    between atoms: _74  and  _75
REMARK   32  A    between atoms: _74  and  _77
REMARK   33  A    between atoms: _77  and  _78
REMARK   34  A    between atoms: _78  and  _79
REMARK   35  A    between atoms: _84  and  _86
REMARK   36  A    between atoms: _86  and  _87
REMARK   37  A    between atoms: _86  and  _89
REMARK   38  A    between atoms: _92  and  _94
REMARK   39  A    between atoms: _94  and  _95
REMARK   40  A    between atoms: _94  and  _97
REMARK   41  A    between atoms: _97  and  _98
REMARK   42  A    between atoms: _103  and  _104
REMARK   43  A    between atoms: _106  and  _108
REMARK   44  A    between atoms: _108  and  _109
REMARK   45  A    between atoms: _108  and  _111
REMARK   46  A    between atoms: _111  and  _112
REMARK   47  A    between atoms: _112  and  _113
REMARK   48  A    between atoms: _113  and  _114
REMARK   49  A    between atoms: _123  and  _125
REMARK   50  A    between atoms: _125  and  _126
REMARK   51  A    between atoms: _125  and  _128
REMARK   52  A    between atoms: _131  and  _133
REMARK   53  A    between atoms: _133  and  _134
REMARK   54  A    between atoms: _133  and  _136
REMARK   55  A    between atoms: _136  and  _137
REMARK   56  A    between atoms: _139  and  _141
REMARK   57  A    between atoms: _141  and  _142
REMARK   58  A    between atoms: _141  and  _144
REMARK   59  A    between atoms: _144  and  _145
REMARK   60  A    between atoms: _151  and  _153
REMARK   61  A    between atoms: _153  and  _154
REMARK   62  A    between atoms: _153  and  _156
REMARK   63  A    between atoms: _156  and  _157
REMARK   64  A    between atoms: _160  and  _162
REMARK   65  A    between atoms: _162  and  _163
REMARK   66  A    between atoms: _162  and  _165
REMARK   67  A    between atoms: _165  and  _166
REMARK   68  A    between atoms: _166  and  _167
REMARK   69  A    between atoms: _167  and  _168
REMARK   70  A    between atoms: _177  and  _179
REMARK   71  A    between atoms: _179  and  _180
REMARK   72  A    between atoms: _179  and  _182
REMARK   73  A    between atoms: _182  and  _183
REMARK   74  A    between atoms: _186  and  _188
REMARK   75  A    between atoms: _188  and  _189
REMARK   76  A    between atoms: _188  and  _191
REMARK   77  A    between atoms: _191  and  _192
REMARK   78  A    between atoms: _195  and  _197
REMARK   79  A    between atoms: _197  and  _198
REMARK   80  A    between atoms: _197  and  _200
REMARK   81  A    between atoms: _200  and  _201
REMARK   82  A    between atoms: _201  and  _202
REMARK   83  A    between atoms: _207  and  _209
REMARK   84  A    between atoms: _209  and  _210
REMARK   85  A    between atoms: _209  and  _212
REMARK   86  A    between atoms: _212  and  _213
REMARK   87  A    between atoms: _213  and  _214
REMARK   88  A    between atoms: _217  and  _219
REMARK   89  A    between atoms: _219  and  _220
REMARK   90  A    between atoms: _219  and  _222
REMARK   91  A    between atoms: _222  and  _223
REMARK   92  A    between atoms: _226  and  _228
REMARK   93  A    between atoms: _228  and  _229
REMARK   94  A    between atoms: _228  and  _231
REMARK   95  A    between atoms: _234  and  _236
REMARK   96  A    between atoms: _236  and  _237
REMARK   97  A    between atoms: _236  and  _239
REMARK   98  A    between atoms: _239  and  _240
REMARK   99  A    between atoms: _240  and  _241
REMARK  100  A    between atoms: _241  and  _242
REMARK  101  A    between atoms: _242  and  _243
REMARK  102  A    between atoms: _247  and  _249
REMARK  103  A    between atoms: _249  and  _250
REMARK  104  A    between atoms: _249  and  _252
REMARK  105  A    between atoms: _252  and  _253
REMARK  106  A    between atoms: _253  and  _254
REMARK  107  A    between atoms: _256  and  _258
REMARK  108  A    between atoms: _258  and  _259
REMARK  109  A    between atoms: _258  and  _261
REMARK  110  A    between atoms: _261  and  _262
REMARK  111  A    between atoms: _262  and  _263
REMARK  112  A    between atoms: _265  and  _267
REMARK  113  A    between atoms: _267  and  _268
REMARK  114  A    between atoms: _267  and  _270
REMARK  115  A    between atoms: _270  and  _271
REMARK  116  A    between atoms: _273  and  _275
REMARK  117  A    between atoms: _275  and  _276
REMARK  118  A    between atoms: _275  and  _278
REMARK  119  A    between atoms: _278  and  _279
REMARK  120  A    between atoms: _279  and  _280
REMARK  121  A    between atoms: _283  and  _285
REMARK  122  A    between atoms: _285  and  _286
REMARK  123  A    between atoms: _285  and  _288
REMARK  124  A    between atoms: _288  and  _289
REMARK  125  A    between atoms: _292  and  _294
REMARK  126  A    between atoms: _294  and  _295
REMARK  127  A    between atoms: _294  and  _297
REMARK  128  A    between atoms: _297  and  _298
REMARK  129  A    between atoms: _301  and  _303
REMARK  130  A    between atoms: _303  and  _304
REMARK  131  A    between atoms: _303  and  _306
REMARK  132  A    between atoms: _306  and  _307
REMARK  133  A    between atoms: _307  and  _308
REMARK  134  A    between atoms: _311  and  _313
REMARK  135  A    between atoms: _313  and  _314
REMARK  136  A    between atoms: _313  and  _316
REMARK  137  A    between atoms: _316  and  _317
REMARK  138  A    between atoms: _320  and  _322
REMARK  139  A    between atoms: _322  and  _323
REMARK  140  A    between atoms: _322  and  _325
REMARK  141  A    between atoms: _325  and  _326
REMARK  142  A    between atoms: _326  and  _327
REMARK  143  A    between atoms: _332  and  _334
REMARK  144  A    between atoms: _334  and  _335
REMARK  145  A    between atoms: _334  and  _337
REMARK  146  A    between atoms: _337  and  _338
REMARK  147  A    between atoms: _341  and  _343
REMARK  148  A    between atoms: _343  and  _344
REMARK  149  A    between atoms: _343  and  _346
REMARK  150  A    between atoms: _346  and  _347
REMARK  151  A    between atoms: _349  and  _351
REMARK  152  A    between atoms: _351  and  _352
REMARK  153  A    between atoms: _355  and  _357
REMARK  154  A    between atoms: _357  and  _358
REMARK  155  A    between atoms: _357  and  _360
REMARK  156  A    between atoms: _360  and  _361
REMARK  157  A    between atoms: _367  and  _369
REMARK  158  A    between atoms: _369  and  _370
REMARK  159  A    between atoms: _369  and  _372
REMARK  160  A    between atoms: _372  and  _373
REMARK  161  A    between atoms: _376  and  _378
REMARK  162  A    between atoms: _378  and  _379
REMARK  163  A    between atoms: _378  and  _381
REMARK  164  A    between atoms: _381  and  _382
REMARK  165  A    between atoms: _387  and  _389
REMARK  166  A    between atoms: _389  and  _390
REMARK  167  A    between atoms: _389  and  _392
REMARK  168  A    between atoms: _395  and  _397
REMARK  169  A    between atoms: _397  and  _398
REMARK  170  A    between atoms: _401  and  _403
REMARK  171  A    between atoms: _403  and  _404
REMARK  172  A    between atoms: _403  and  _406
REMARK  173  A    between atoms: _406  and  _407
REMARK  174  A    between atoms: _413  and  _415
REMARK  175  A    between atoms: _415  and  _416
REMARK  176  A    between atoms: _415  and  _418
REMARK  177  A    between atoms: _418  and  _419
REMARK  178  A    between atoms: _419  and  _420
REMARK  179  A    between atoms: _425  and  _427
REMARK  180  A    between atoms: _427  and  _428
REMARK  181  A    between atoms: _427  and  _430
REMARK  182  A    between atoms: _430  and  _431
REMARK  183  A    between atoms: _431  and  _432
REMARK  184  A    between atoms: _432  and  _433
REMARK  185  A    between atoms: _433  and  _434
REMARK  186  A    between atoms: _438  and  _440
REMARK  187  A    between atoms: _440  and  _441
REMARK  188  A    between atoms: _440  and  _443
REMARK  189  A    between atoms: _446  and  _448
REMARK  190  A    between atoms: _448  and  _449
REMARK  191  A    between atoms: _448  and  _451
REMARK  192  A    between atoms: _454  and  _456
REMARK  193  A    between atoms: _456  and  _457
REMARK  194  A    between atoms: _456  and  _459
REMARK  195  A    between atoms: _459  and  _460
REMARK  196  A    between atoms: _460  and  _461
REMARK  197  A    between atoms: _461  and  _462
REMARK  198  A    between atoms: _471  and  _473
REMARK  199  A    between atoms: _473  and  _474
REMARK  200  A    between atoms: _473  and  _476
REMARK  201  A    between atoms: _476  and  _477
REMARK  202  A    between atoms: _483  and  _485
REMARK  203  A    between atoms: _485  and  _486
REMARK  204  A    between atoms: _485  and  _488
REMARK  205  A    between atoms: _488  and  _489
REMARK  206  A    between atoms: _499  and  _501
REMARK  207  A    between atoms: _501  and  _502
REMARK  208  A    between atoms: _501  and  _504
REMARK  209  A    between atoms: _504  and  _505
REMARK  210  A    between atoms: _508  and  _510
REMARK  211  A    between atoms: _510  and  _511
REMARK  212  A    between atoms: _510  and  _513
REMARK  213  A    between atoms: _513  and  _514
REMARK  214  A    between atoms: _524  and  _526
REMARK  215  A    between atoms: _526  and  _527
REMARK  216  A    between atoms: _526  and  _529
REMARK  217  A    between atoms: _529  and  _530
REMARK  218  A    between atoms: _534  and  _535
REMARK  219  A    between atoms: _540  and  _542
REMARK  220  A    between atoms: _542  and  _543
REMARK  221  A    between atoms: _542  and  _545
REMARK  222  A    between atoms: _545  and  _546
REMARK  223  A    between atoms: _549  and  _551
REMARK  224  A    between atoms: _551  and  _552
REMARK  225  A    between atoms: _551  and  _554
REMARK  226  A    between atoms: _554  and  _555
REMARK  227  A    between atoms: _558  and  _560
REMARK  228  A    between atoms: _560  and  _561
REMARK  229  A    between atoms: _564  and  _566
REMARK  230  A    between atoms: _566  and  _567
REMARK  231  A    between atoms: _566  and  _569
REMARK  232  A    between atoms: _569  and  _570
REMARK  233  A    between atoms: _573  and  _575
REMARK  234  A    between atoms: _575  and  _576
REMARK  235  A    between atoms: _575  and  _578
REMARK  236  A    between atoms: _578  and  _579
REMARK  237  A    between atoms: _579  and  _580
REMARK  238  A    between atoms: _585  and  _587
REMARK  239  A    between atoms: _587  and  _588
REMARK  240  A    between atoms: _590  and  _592
REMARK  241  A    between atoms: _592  and  _593
REMARK  242  A    between atoms: _592  and  _595
REMARK  243  A    between atoms: _595  and  _596
REMARK  244  A    between atoms: _599  and  _601
REMARK  245  A    between atoms: _601  and  _602
REMARK  246  A    between atoms: _601  and  _604
REMARK  247  A    between atoms: _604  and  _605
REMARK  248  A    between atoms: _607  and  _609
REMARK  249  A    between atoms: _609  and  _610
REMARK  250  A    between atoms: _613  and  _615
REMARK  251  A    between atoms: _615  and  _616
REMARK  252  A    between atoms: _615  and  _618
REMARK  253  A    between atoms: _618  and  _619
REMARK  254  A    between atoms: _622  and  _624
REMARK  255  A    between atoms: _624  and  _625
REMARK  256  A    between atoms: _624  and  _627
REMARK  257  A    between atoms: _630  and  _632
REMARK  258  A    between atoms: _632  and  _633
REMARK  259  A    between atoms: _632  and  _635
REMARK  260  A    between atoms: _635  and  _636
REMARK  261  A    between atoms: _636  and  _637
REMARK  262  A    between atoms: _642  and  _644
REMARK  263  A    between atoms: _644  and  _645
REMARK  264  A    between atoms: _644  and  _647
REMARK  265  A    between atoms: _647  and  _648
REMARK  266  A    between atoms: _651  and  _653
REMARK  267  A    between atoms: _653  and  _654
REMARK  268  A    between atoms: _653  and  _656
REMARK  269  A    between atoms: _656  and  _657
REMARK                            x       y       z     vdW  Elec       q    Type
REMARK                         _______ _______ _______ _____ _____    ______ ____
ROOT
ATOM      1  C   LEU A   1     -16.427  17.339   9.436  0.00  0.00    +0.238 C 
ATOM      2  O   LEU A   1     -15.813  18.070  10.210  0.00  0.00    -0.274 OA
ATOM      3  N   LEU A   2     -16.519  17.551   8.127  0.00  0.00    -0.298 N 
ATOM      4  H   LEU A   2     -17.081  16.888   7.556  0.00  0.00    +0.150 HD
ENDROOT
BRANCH   1   5
ATOM      5  CA  LEU A   1     -17.141  16.119   9.962  0.00  0.00    +0.145 C 
BRANCH   5   6
ATOM      6  N   LEU A   1     -18.510  16.005   9.453  0.00  0.00    -0.238 NA
ATOM      7  H   LEU A   1     -18.788  15.121   8.981  0.00  0.00    +0.142 HD
ENDBRANCH   5   6
BRANCH   5   8
ATOM      8  CB  LEU A   1     -16.297  14.869   9.657  0.00  0.00    +0.026 C 
BRANCH   8   9
ATOM      9  CG  LEU A   1     -16.690  13.628  10.465  0.00  0.00    +0.002 C 
ATOM     10  CD2 LEU A   1     -16.496  13.836  11.937  0.00  0.00    +0.000 C 
ATOM     11  CD1 LEU A   1     -15.956  12.355   9.990  0.00  0.00    +0.000 C 
ENDBRANCH   8   9
ENDBRANCH   5   8
ENDBRANCH   1   5
BRANCH   3  12
ATOM     12  CA  LEU A   2     -15.869  18.670   7.455  0.00  0.00    +0.137 C 
BRANCH  12  13
ATOM     13  C   LEU A   2     -16.514  20.021   7.712  0.00  0.00    +0.227 C 
ATOM     14  O   LEU A   2     -15.817  21.020   7.969  0.00  0.00    -0.286 OA
ENDBRANCH  12  13
BRANCH  12  15
ATOM     15  CB  LEU A   2     -15.870  18.420   5.931  0.00  0.00    +0.028 C 
BRANCH  15  16
ATOM     16  CG  LEU A   2     -14.723  17.786   5.118  0.00  0.00    +0.002 C 
ATOM     17  CD2 LEU A   2     -13.653  17.109   5.865  0.00  0.00    +0.000 C 
ATOM     18  CD1 LEU A   2     -15.252  16.981   3.948  0.00  0.00    +0.000 C 
ENDBRANCH  15  16
ENDBRANCH  12  15
ENDBRANCH   3  12
TORSDOF 8
REMARK  Name = ../refined-set-2016/2q7y/2q7y_pocket.pdb
REMARK  269 active torsions:
REMARK  status: ('A' for Active; 'I' for Inactive)
REMARK    1  A    between atoms: _1  and  _3
REMARK    2  A    between atoms: _3  and  _4
REMARK    3  A    between atoms: _3  and  _6
REMARK    4  A    between atoms: _8  and  _10
REMARK    5  A    between atoms: _10  and  _11
REMARK    6  A    between atoms: _10  and  _13
REMARK    7  A    between atoms: _13  and  _14
REMARK    8  A    between atoms: _14  and  _15
REMARK    9  A    between atoms: _20  and  _22
REMARK   10  A    between atoms: _22  and  _23
REMARK   11  A    between atoms: _22  and  _25
REMARK   12  A    between atoms: _25  and  _26
REMARK   13  A    between atoms: _32  and  _34
REMARK   14  A    between atoms: _34  and  _35
REMARK   15  A    between atoms: _34  and  _37
REMARK   16  A    between atoms: _37  and  _38
REMARK   17  A    between atoms: _40  and  _42
REMARK   18  A    between atoms: _42  and  _43
REMARK   19  A    between atoms: _42  and  _45
REMARK   20  A    between atoms: _45  and  _46
REMARK   21  A    between atoms: _51  and  _53
REMARK   22  A    between atoms: _53  and  _54
REMARK   23  A    between atoms: _53  and  _56
REMARK   24  A    between atoms: _56  and  _57
REMARK   25  A    between atoms: _57  and  _58
REMARK   26  A    between atoms: _60  and  _62
REMARK   27  A    between atoms: _62  and  _63
REMARK   28  A    between atoms: _62  and  _65
REMARK   29  A    between atoms: _65  and  _66
REMARK   30  A    between atoms: _72  and  _74
REMARK   31  A    between atoms: _74  and  _75
REMARK   32  A    between atoms: _74  and  _77
REMARK   33  A    between atoms: _77  and  _78
REMARK   34  A    between atoms: _78  and  _79
REMARK   35  A    between atoms: _84  and  _86
REMARK   36  A    between atoms: _86  and  _87
REMARK   37  A    between atoms: _86  and  _89
REMARK   38  A    between atoms: _92  and  _94
REMARK   39  A    between atoms: _94  and  _95
REMARK   40  A    between atoms: _94  and  _97
REMARK   41  A    between atoms: _97  and  _98
REMARK   42  A    between atoms: _103  and  _104
REMARK   43  A    between atoms: _106  and  _108
REMARK   44  A    between atoms: _108  and  _109
REMARK   45  A    between atoms: _108  and  _111
REMARK   46  A    between atoms: _111  and  _112
REMARK   47  A    between atoms: _112  and  _113
REMARK   48  A    between atoms: _113  and  _114
REMARK   49  A    between atoms: _123  and  _125
REMARK   50  A    between atoms: _125  and  _126
REMARK   51  A    between atoms: _125  and  _128
REMARK   52  A    between atoms: _131  and  _133
REMARK   53  A    between atoms: _133  and  _134
REMARK   54  A    between atoms: _133  and  _136
REMARK   55  A    between atoms: _136  and  _137
REMARK   56  A    between atoms: _139  and  _141
REMARK   57  A    between atoms: _141  and  _142
REMARK   58  A    between atoms: _141  and  _144
REMARK   59  A    between atoms: _144  and  _145
REMARK   60  A    between atoms: _151  and  _153
REMARK   61  A    between atoms: _153  and  _154
REMARK   62  A    between atoms: _153  and  _156
REMARK   63  A    between atoms: _156  and  _157
REMARK   64  A    between atoms: _160  and  _162
REMARK   65  A    between atoms: _162  and  _163
REMARK   66  A    between atoms: _162  and  _165
REMARK   67  A    between atoms: _165  and  _166
REMARK   68  A    between atoms: _166  and  _167
REMARK   69  A    between atoms: _167  and  _168
REMARK   70  A    between atoms: _177  and  _179
REMARK   71  A    between atoms: _179  and  _180
REMARK   72  A    between atoms: _179  and  _182
REMARK   73  A    between atoms: _182  and  _183
REMARK   74  A    between atoms: _186  and  _188
REMARK   75  A    between atoms: _188  and  _189
REMARK   76  A    between atoms: _188  and  _191
REMARK   77  A    between atoms: _191  and  _192
REMARK   78  A    between atoms: _195  and  _197
REMARK   79  A    between atoms: _197  and  _198
REMARK   80  A    between atoms: _197  and  _200
REMARK   81  A    between atoms: _200  and  _201
REMARK   82  A    between atoms: _201  and  _202
REMARK   83  A    between atoms: _207  and  _209
REMARK   84  A    between atoms: _209  and  _210
REMARK   85  A    between atoms: _209  and  _212
REMARK   86  A    between atoms: _212  and  _213
REMARK   87  A    between atoms: _213  and  _214
REMARK   88  A    between atoms: _217  and  _219
REMARK   89  A    between atoms: _219  and  _220
REMARK   90  A    between atoms: _219  and  _222
REMARK   91  A    between atoms: _222  and  _223
REMARK   92  A    between atoms: _226  and  _228
REMARK   93  A    between atoms: _228  and  _229
REMARK   94  A    between atoms: _228  and  _231
REMARK   95  A    between atoms: _234  and  _236
REMARK   96  A    between atoms: _236  and  _237
REMARK   97  A    between atoms: _236  and  _239
REMARK   98  A    between atoms: _239  and  _240
REMARK   99  A    between atoms: _240  and  _241
REMARK  100  A    between atoms: _241  and  _242
REMARK  101  A    between atoms: _242  and  _243
REMARK  102  A    between atoms: _247  and  _249
REMARK  103  A    between atoms: _249  and  _250
REMARK  104  A    between atoms: _249  and  _252
REMARK  105  A    between atoms: _252  and  _253
REMARK  106  A    between atoms: _253  and  _254
REMARK  107  A    between atoms: _256  and  _258
REMARK  108  A    between atoms: _258  and  _259
REMARK  109  A    between atoms: _258  and  _261
REMARK  110  A    between atoms: _261  and  _262
REMARK  111  A    between atoms: _262  and  _263
REMARK  112  A    between atoms: _265  and  _267
REMARK  113  A    between atoms: _267  and  _268
REMARK  114  A    between atoms: _267  and  _270
REMARK  115  A    between atoms: _270  and  _271
REMARK  116  A    between atoms: _273  and  _275
REMARK  117  A    between atoms: _275  and  _276
REMARK  118  A    between atoms: _275  and  _278
REMARK  119  A    between atoms: _278  and  _279
REMARK  120  A    between atoms: _279  and  _280
REMARK  121  A    between atoms: _283  and  _285
REMARK  122  A    between atoms: _285  and  _286
REMARK  123  A    between atoms: _285  and  _288
REMARK  124  A    between atoms: _288  and  _289
REMARK  125  A    between atoms: _292  and  _294
REMARK  126  A    between atoms: _294  and  _295
REMARK  127  A    between atoms: _294  and  _297
REMARK  128  A    between atoms: _297  and  _298
REMARK  129  A    between atoms: _301  and  _303
REMARK  130  A    between atoms: _303  and  _304
REMARK  131  A    between atoms: _303  and  _306
REMARK  132  A    between atoms: _306  and  _307
REMARK  133  A    between atoms: _307  and  _308
REMARK  134  A    between atoms: _311  and  _313
REMARK  135  A    between atoms: _313  and  _314
REMARK  136  A    between atoms: _313  and  _316
REMARK  137  A    between atoms: _316  and  _317
REMARK  138  A    between atoms: _320  and  _322
REMARK  139  A    between atoms: _322  and  _323
REMARK  140  A    between atoms: _322  and  _325
REMARK  141  A    between atoms: _325  and  _326
REMARK  142  A    between atoms: _326  and  _327
REMARK  143  A    between atoms: _332  and  _334
REMARK  144  A    between atoms: _334  and  _335
REMARK  145  A    between atoms: _334  and  _337
REMARK  146  A    between atoms: _337  and  _338
REMARK  147  A    between atoms: _341  and  _343
REMARK  148  A    between atoms: _343  and  _344
REMARK  149  A    between atoms: _343  and  _346
REMARK  150  A    between atoms: _346  and  _347
REMARK  151  A    between atoms: _349  and  _351
REMARK  152  A    between atoms: _351  and  _352
REMARK  153  A    between atoms: _355  and  _357
REMARK  154  A    between atoms: _357  and  _358
REMARK  155  A    between atoms: _357  and  _360
REMARK  156  A    between atoms: _360  and  _361
REMARK  157  A    between atoms: _367  and  _369
REMARK  158  A    between atoms: _369  and  _370
REMARK  159  A    between atoms: _369  and  _372
REMARK  160  A    between atoms: _372  and  _373
REMARK  161  A    between atoms: _376  and  _378
REMARK  162  A    between atoms: _378  and  _379
REMARK  163  A    between atoms: _378  and  _381
REMARK  164  A    between atoms: _381  and  _382
REMARK  165  A    between atoms: _387  and  _389
REMARK  166  A    between atoms: _389  and  _390
REMARK  167  A    between atoms: _389  and  _392
REMARK  168  A    between atoms: _395  and  _397
REMARK  169  A    between atoms: _397  and  _398
REMARK  170  A    between atoms: _401  and  _403
REMARK  171  A    between atoms: _403  and  _404
REMARK  172  A    between atoms: _403  and  _406
REMARK  173  A    between atoms: _406  and  _407
REMARK  174  A    between atoms: _413  and  _415
REMARK  175  A    between atoms: _415  and  _416
REMARK  176  A    between atoms: _415  and  _418
REMARK  177  A    between atoms: _418  and  _419
REMARK  178  A    between atoms: _419  and  _420
REMARK  179  A    between atoms: _425  and  _427
REMARK  180  A    between atoms: _427  and  _428
REMARK  181  A    between atoms: _427  and  _430
REMARK  182  A    between atoms: _430  and  _431
REMARK  183  A    between atoms: _431  and  _432
REMARK  184  A    between atoms: _432  and  _433
REMARK  185  A    between atoms: _433  and  _434
REMARK  186  A    between atoms: _438  and  _440
REMARK  187  A    between atoms: _440  and  _441
REMARK  188  A    between atoms: _440  and  _443
REMARK  189  A    between atoms: _446  and  _448
REMARK  190  A    between atoms: _448  and  _449
REMARK  191  A    between atoms: _448  and  _451
REMARK  192  A    between atoms: _454  and  _456
REMARK  193  A    between atoms: _456  and  _457
REMARK  194  A    between atoms: _456  and  _459
REMARK  195  A    between atoms: _459  and  _460
REMARK  196  A    between atoms: _460  and  _461
REMARK  197  A    between atoms: _461  and  _462
REMARK  198  A    between atoms: _471  and  _473
REMARK  199  A    between atoms: _473  and  _474
REMARK  200  A    between atoms: _473  and  _476
REMARK  201  A    between atoms: _476  and  _477
REMARK  202  A    between atoms: _483  and  _485
REMARK  203  A    between atoms: _485  and  _486
REMARK  204  A    between atoms: _485  and  _488
REMARK  205  A    between atoms: _488  and  _489
REMARK  206  A    between atoms: _499  and  _501
REMARK  207  A    between atoms: _501  and  _502
REMARK  208  A    between atoms: _501  and  _504
REMARK  209  A    between atoms: _504  and  _505
REMARK  210  A    between atoms: _508  and  _510
REMARK  211  A    between atoms: _510  and  _511
REMARK  212  A    between atoms: _510  and  _513
REMARK  213  A    between atoms: _513  and  _514
REMARK  214  A    between atoms: _524  and  _526
REMARK  215  A    between atoms: _526  and  _527
REMARK  216  A    between atoms: _526  and  _529
REMARK  217  A    between atoms: _529  and  _530
REMARK  218  A    between atoms: _534  and  _535
REMARK  219  A    between atoms: _540  and  _542
REMARK  220  A    between atoms: _542  and  _543
REMARK  221  A    between atoms: _542  and  _545
REMARK  222  A    between atoms: _545  and  _546
REMARK  223  A    between atoms: _549  and  _551
REMARK  224  A    between atoms: _551  and  _552
REMARK  225  A    between atoms: _551  and  _554
REMARK  226  A    between atoms: _554  and  _555
REMARK  227  A    between atoms: _558  and  _560
REMARK  228  A    between atoms: _560  and  _561
REMARK  229  A    between atoms: _564  and  _566
REMARK  230  A    between atoms: _566  and  _567
REMARK  231  A    between atoms: _566  and  _569
REMARK  232  A    between atoms: _569  and  _570
REMARK  233  A    between atoms: _573  and  _575
REMARK  234  A    between atoms: _575  and  _576
REMARK  235  A    between atoms: _575  and  _578
REMARK  236  A    between atoms: _578  and  _579
REMARK  237  A    between atoms: _579  and  _580
REMARK  238  A    between atoms: _585  and  _587
REMARK  239  A    between atoms: _587  and  _588
REMARK  240  A    between atoms: _590  and  _592
REMARK  241  A    between atoms: _592  and  _593
REMARK  242  A    between atoms: _592  and  _595
REMARK  243  A    between atoms: _595  and  _596
REMARK  244  A    between atoms: _599  and  _601
REMARK  245  A    between atoms: _601  and  _602
REMARK  246  A    between atoms: _601  and  _604
REMARK  247  A    between atoms: _604  and  _605
REMARK  248  A    between atoms: _607  and  _609
REMARK  249  A    between atoms: _609  and  _610
REMARK  250  A    between atoms: _613  and  _615
REMARK  251  A    between atoms: _615  and  _616
REMARK  252  A    between atoms: _615  and  _618
REMARK  253  A    between atoms: _618  and  _619
REMARK  254  A    between atoms: _622  and  _624
REMARK  255  A    between atoms: _624  and  _625
REMARK  256  A    between atoms: _624  and  _627
REMARK  257  A    between atoms: _630  and  _632
REMARK  258  A    between atoms: _632  and  _633
REMARK  259  A    between atoms: _632  and  _635
REMARK  260  A    between atoms: _635  and  _636
REMARK  261  A    between atoms: _636  and  _637
REMARK  262  A    between atoms: _642  and  _644
REMARK  263  A    between atoms: _644  and  _645
REMARK  264  A    between atoms: _644  and  _647
REMARK  265  A    between atoms: _647  and  _648
REMARK  266  A    between atoms: _651  and  _653
REMARK  267  A    between atoms: _653  and  _654
REMARK  268  A    between atoms: _653  and  _656
REMARK  269  A    between atoms: _656  and  _657
REMARK                            x       y       z     vdW  Elec       q    Type
REMARK                         _______ _______ _______ _____ _____    ______ ____
ROOT
ATOM      1  O   HOH     1     -15.621  -1.624  10.348  0.00  0.00    +0.000 OA
ENDROOT
TORSDOF 0
REMARK  Name = ../refined-set-2016/2q7y/2q7y_pocket.pdb
REMARK  269 active torsions:
REMARK  status: ('A' for Active; 'I' for Inactive)
REMARK    1  A    between atoms: _1  and  _3
REMARK    2  A    between atoms: _3  and  _4
REMARK    3  A    between atoms: _3  and  _6
REMARK    4  A    between atoms: _8  and  _10
REMARK    5  A    between atoms: _10  and  _11
REMARK    6  A    between atoms: _10  and  _13
REMARK    7  A    between atoms: _13  and  _14
REMARK    8  A    between atoms: _14  and  _15
REMARK    9  A    between atoms: _20  and  _22
REMARK   10  A    between atoms: _22  and  _23
REMARK   11  A    between atoms: _22  and  _25
REMARK   12  A    between atoms: _25  and  _26
REMARK   13  A    between atoms: _32  and  _34
REMARK   14  A    between atoms: _34  and  _35
REMARK   15  A    between atoms: _34  and  _37
REMARK   16  A    between atoms: _37  and  _38
REMARK   17  A    between atoms: _40  and  _42
REMARK   18  A    between atoms: _42  and  _43
REMARK   19  A    between atoms: _42  and  _45
REMARK   20  A    between atoms: _45  and  _46
REMARK   21  A    between atoms: _51  and  _53
REMARK   22  A    between atoms: _53  and  _54
REMARK   23  A    between atoms: _53  and  _56
REMARK   24  A    between atoms: _56  and  _57
REMARK   25  A    between atoms: _57  and  _58
REMARK   26  A    between atoms: _60  and  _62
REMARK   27  A    between atoms: _62  and  _63
REMARK   28  A    between atoms: _62  and  _65
REMARK   29  A    between atoms: _65  and  _66
REMARK   30  A    between atoms: _72  and  _74
REMARK   31  A    between atoms: _74  and  _75
REMARK   32  A    between atoms: _74  and  _77
REMARK   33  A    between atoms: _77  and  _78
REMARK   34  A    between atoms: _78  and  _79
REMARK   35  A    between atoms: _84  and  _86
REMARK   36  A    between atoms: _86  and  _87
REMARK   37  A    between atoms: _86  and  _89
REMARK   38  A    between atoms: _92  and  _94
REMARK   39  A    between atoms: _94  and  _95
REMARK   40  A    between atoms: _94  and  _97
REMARK   41  A    between atoms: _97  and  _98
REMARK   42  A    between atoms: _103  and  _104
REMARK   43  A    between atoms: _106  and  _108
REMARK   44  A    between atoms: _108  and  _109
REMARK   45  A    between atoms: _108  and  _111
REMARK   46  A    between atoms: _111  and  _112
REMARK   47  A    between atoms: _112  and  _113
REMARK   48  A    between atoms: _113  and  _114
REMARK   49  A    between atoms: _123  and  _125
REMARK   50  A    between atoms: _125  and  _126
REMARK   51  A    between atoms: _125  and  _128
REMARK   52  A    between atoms: _131  and  _133
REMARK   53  A    between atoms: _133  and  _134
REMARK   54  A    between atoms: _133  and  _136
REMARK   55  A    between atoms: _136  and  _137
REMARK   56  A    between atoms: _139  and  _141
REMARK   57  A    between atoms: _141  and  _142
REMARK   58  A    between atoms: _141  and  _144
REMARK   59  A    between atoms: _144  and  _145
REMARK   60  A    between atoms: _151  and  _153
REMARK   61  A    between atoms: _153  and  _154
REMARK   62  A    between atoms: _153  and  _156
REMARK   63  A    between atoms: _156  and  _157
REMARK   64  A    between atoms: _160  and  _162
REMARK   65  A    between atoms: _162  and  _163
REMARK   66  A    between atoms: _162  and  _165
REMARK   67  A    between atoms: _165  and  _166
REMARK   68  A    between atoms: _166  and  _167
REMARK   69  A    between atoms: _167  and  _168
REMARK   70  A    between atoms: _177  and  _179
REMARK   71  A    between atoms: _179  and  _180
REMARK   72  A    between atoms: _179  and  _182
REMARK   73  A    between atoms: _182  and  _183
REMARK   74  A    between atoms: _186  and  _188
REMARK   75  A    between atoms: _188  and  _189
REMARK   76  A    between atoms: _188  and  _191
REMARK   77  A    between atoms: _191  and  _192
REMARK   78  A    between atoms: _195  and  _197
REMARK   79  A    between atoms: _197  and  _198
REMARK   80  A    between atoms: _197  and  _200
REMARK   81  A    between atoms: _200  and  _201
REMARK   82  A    between atoms: _201  and  _202
REMARK   83  A    between atoms: _207  and  _209
REMARK   84  A    between atoms: _209  and  _210
REMARK   85  A    between atoms: _209  and  _212
REMARK   86  A    between atoms: _212  and  _213
REMARK   87  A    between atoms: _213  and  _214
REMARK   88  A    between atoms: _217  and  _219
REMARK   89  A    between atoms: _219  and  _220
REMARK   90  A    between atoms: _219  and  _222
REMARK   91  A    between atoms: _222  and  _223
REMARK   92  A    between atoms: _226  and  _228
REMARK   93  A    between atoms: _228  and  _229
REMARK   94  A    between atoms: _228  and  _231
REMARK   95  A    between atoms: _234  and  _236
REMARK   96  A    between atoms: _236  and  _237
REMARK   97  A    between atoms: _236  and  _239
REMARK   98  A    between atoms: _239  and  _240
REMARK   99  A    between atoms: _240  and  _241
REMARK  100  A    between atoms: _241  and  _242
REMARK  101  A    between atoms: _242  and  _243
REMARK  102  A    between atoms: _247  and  _249
REMARK  103  A    between atoms: _249  and  _250
REMARK  104  A    between atoms: _249  and  _252
REMARK  105  A    between atoms: _252  and  _253
REMARK  106  A    between atoms: _253  and  _254
REMARK  107  A    between atoms: _256  and  _258
REMARK  108  A    between atoms: _258  and  _259
REMARK  109  A    between atoms: _258  and  _261
REMARK  110  A    between atoms: _261  and  _262
REMARK  111  A    between atoms: _262  and  _263
REMARK  112  A    between atoms: _265  and  _267
REMARK  113  A    between atoms: _267  and  _268
REMARK  114  A    between atoms: _267  and  _270
REMARK  115  A    between atoms: _270  and  _271
REMARK  116  A    between atoms: _273  and  _275
REMARK  117  A    between atoms: _275  and  _276
REMARK  118  A    between atoms: _275  and  _278
REMARK  119  A    between atoms: _278  and  _279
REMARK  120  A    between atoms: _279  and  _280
REMARK  121  A    between atoms: _283  and  _285
REMARK  122  A    between atoms: _285  and  _286
REMARK  123  A    between atoms: _285  and  _288
REMARK  124  A    between atoms: _288  and  _289
REMARK  125  A    between atoms: _292  and  _294
REMARK  126  A    between atoms: _294  and  _295
REMARK  127  A    between atoms: _294  and  _297
REMARK  128  A    between atoms: _297  and  _298
REMARK  129  A    between atoms: _301  and  _303
REMARK  130  A    between atoms: _303  and  _304
REMARK  131  A    between atoms: _303  and  _306
REMARK  132  A    between atoms: _306  and  _307
REMARK  133  A    between atoms: _307  and  _308
REMARK  134  A    between atoms: _311  and  _313
REMARK  135  A    between atoms: _313  and  _314
REMARK  136  A    between atoms: _313  and  _316
REMARK  137  A    between atoms: _316  and  _317
REMARK  138  A    between atoms: _320  and  _322
REMARK  139  A    between atoms: _322  and  _323
REMARK  140  A    between atoms: _322  and  _325
REMARK  141  A    between atoms: _325  and  _326
REMARK  142  A    between atoms: _326  and  _327
REMARK  143  A    between atoms: _332  and  _334
REMARK  144  A    between atoms: _334  and  _335
REMARK  145  A    between atoms: _334  and  _337
REMARK  146  A    between atoms: _337  and  _338
REMARK  147  A    between atoms: _341  and  _343
REMARK  148  A    between atoms: _343  and  _344
REMARK  149  A    between atoms: _343  and  _346
REMARK  150  A    between atoms: _346  and  _347
REMARK  151  A    between atoms: _349  and  _351
REMARK  152  A    between atoms: _351  and  _352
REMARK  153  A    between atoms: _355  and  _357
REMARK  154  A    between atoms: _357  and  _358
REMARK  155  A    between atoms: _357  and  _360
REMARK  156  A    between atoms: _360  and  _361
REMARK  157  A    between atoms: _367  and  _369
REMARK  158  A    between atoms: _369  and  _370
REMARK  159  A    between atoms: _369  and  _372
REMARK  160  A    between atoms: _372  and  _373
REMARK  161  A    between atoms: _376  and  _378
REMARK  162  A    between atoms: _378  and  _379
REMARK  163  A    between atoms: _378  and  _381
REMARK  164  A    between atoms: _381  and  _382
REMARK  165  A    between atoms: _387  and  _389
REMARK  166  A    between atoms: _389  and  _390
REMARK  167  A    between atoms: _389  and  _392
REMARK  168  A    between atoms: _395  and  _397
REMARK  169  A    between atoms: _397  and  _398
REMARK  170  A    between atoms: _401  and  _403
REMARK  171  A    between atoms: _403  and  _404
REMARK  172  A    between atoms: _403  and  _406
REMARK  173  A    between atoms: _406  and  _407
REMARK  174  A    between atoms: _413  and  _415
REMARK  175  A    between atoms: _415  and  _416
REMARK  176  A    between atoms: _415  and  _418
REMARK  177  A    between atoms: _418  and  _419
REMARK  178  A    between atoms: _419  and  _420
REMARK  179  A    between atoms: _425  and  _427
REMARK  180  A    between atoms: _427  and  _428
REMARK  181  A    between atoms: _427  and  _430
REMARK  182  A    between atoms: _430  and  _431
REMARK  183  A    between atoms: _431  and  _432
REMARK  184  A    between atoms: _432  and  _433
REMARK  185  A    between atoms: _433  and  _434
REMARK  186  A    between atoms: _438  and  _440
REMARK  187  A    between atoms: _440  and  _441
REMARK  188  A    between atoms: _440  and  _443
REMARK  189  A    between atoms: _446  and  _448
REMARK  190  A    between atoms: _448  and  _449
REMARK  191  A    between atoms: _448  and  _451
REMARK  192  A    between atoms: _454  and  _456
REMARK  193  A    between atoms: _456  and  _457
REMARK  194  A    between atoms: _456  and  _459
REMARK  195  A    between atoms: _459  and  _460
REMARK  196  A    between atoms: _460  and  _461
REMARK  197  A    between atoms: _461  and  _462
REMARK  198  A    between atoms: _471  and  _473
REMARK  199  A    between atoms: _473  and  _474
REMARK  200  A    between atoms: _473  and  _476
REMARK  201  A    between atoms: _476  and  _477
REMARK  202  A    between atoms: _483  and  _485
REMARK  203  A    between atoms: _485  and  _486
REMARK  204  A    between atoms: _485  and  _488
REMARK  205  A    between atoms: _488  and  _489
REMARK  206  A    between atoms: _499  and  _501
REMARK  207  A    between atoms: _501  and  _502
REMARK  208  A    between atoms: _501  and  _504
REMARK  209  A    between atoms: _504  and  _505
REMARK  210  A    between atoms: _508  and  _510
REMARK  211  A    between atoms: _510  and  _511
REMARK  212  A    between atoms: _510  and  _513
REMARK  213  A    between atoms: _513  and  _514
REMARK  214  A    between atoms: _524  and  _526
REMARK  215  A    between atoms: _526  and  _527
REMARK  216  A    between atoms: _526  and  _529
REMARK  217  A    between atoms: _529  and  _530
REMARK  218  A    between atoms: _534  and  _535
REMARK  219  A    between atoms: _540  and  _542
REMARK  220  A    between atoms: _542  and  _543
REMARK  221  A    between atoms: _542  and  _545
REMARK  222  A    between atoms: _545  and  _546
REMARK  223  A    between atoms: _549  and  _551
REMARK  224  A    between atoms: _551  and  _552
REMARK  225  A    between atoms: _551  and  _554
REMARK  226  A    between atoms: _554  and  _555
REMARK  227  A    between atoms: _558  and  _560
REMARK  228  A    between atoms: _560  and  _561
REMARK  229  A    between atoms: _564  and  _566
REMARK  230  A    between atoms: _566  and  _567
REMARK  231  A    between atoms: _566  and  _569
REMARK  232  A    between atoms: _569  and  _570
REMARK  233  A    between atoms: _573  and  _575
REMARK  234  A    between atoms: _575  and  _576
REMARK  235  A    between atoms: _575  and  _578
REMARK  236  A    between atoms: _578  and  _579
REMARK  237  A    between atoms: _579  and  _580
REMARK  238  A    between atoms: _585  and  _587
REMARK  239  A    between atoms: _587  and  _588
REMARK  240  A    between atoms: _590  and  _592
REMARK  241  A    between atoms: _592  and  _593
REMARK  242  A    between atoms: _592  and  _595
REMARK  243  A    between atoms: _595  and  _596
REMARK  244  A    between atoms: _599  and  _601
REMARK  245  A    between atoms: _601  and  _602
REMARK  246  A    between atoms: _601  and  _604
REMARK  247  A    between atoms: _604  and  _605
REMARK  248  A    between atoms: _607  and  _609
REMARK  249  A    between atoms: _609  and  _610
REMARK  250  A    between atoms: _613  and  _615
REMARK  251  A    between atoms: _615  and  _616
REMARK  252  A    between atoms: _615  and  _618
REMARK  253  A    between atoms: _618  and  _619
REMARK  254  A    between atoms: _622  and  _624
REMARK  255  A    between atoms: _624  and  _625
REMARK  256  A    between atoms: _624  and  _627
REMARK  257  A    between atoms: _630  and  _632
REMARK  258  A    between atoms: _632  and  _633
REMARK  259  A    between atoms: _632  and  _635
REMARK  260  A    between atoms: _635  and  _636
REMARK  261  A    between atoms: _636  and  _637
REMARK  262  A    between atoms: _642  and  _644
REMARK  263  A    between atoms: _644  and  _645
REMARK  264  A    between atoms: _644  and  _647
REMARK  265  A    between atoms: _647  and  _648
REMARK  266  A    between atoms: _651  and  _653
REMARK  267  A    between atoms: _653  and  _654
REMARK  268  A    between atoms: _653  and  _656
REMARK  269  A    between atoms: _656  and  _657
REMARK                            x       y       z     vdW  Elec       q    Type
REMARK                         _______ _______ _______ _____ _____    ______ ____
ROOT
ATOM      1  O   HOH     1     -25.355   4.351   3.942  0.00  0.00    +0.000 OA
ENDROOT
TORSDOF 0
REMARK  Name = ../refined-set-2016/2q7y/2q7y_pocket.pdb
REMARK  269 active torsions:
REMARK  status: ('A' for Active; 'I' for Inactive)
REMARK    1  A    between atoms: _1  and  _3
REMARK    2  A    between atoms: _3  and  _4
REMARK    3  A    between atoms: _3  and  _6
REMARK    4  A    between atoms: _8  and  _10
REMARK    5  A    between atoms: _10  and  _11
REMARK    6  A    between atoms: _10  and  _13
REMARK    7  A    between atoms: _13  and  _14
REMARK    8  A    between atoms: _14  and  _15
REMARK    9  A    between atoms: _20  and  _22
REMARK   10  A    between atoms: _22  and  _23
REMARK   11  A    between atoms: _22  and  _25
REMARK   12  A    between atoms: _25  and  _26
REMARK   13  A    between atoms: _32  and  _34
REMARK   14  A    between atoms: _34  and  _35
REMARK   15  A    between atoms: _34  and  _37
REMARK   16  A    between atoms: _37  and  _38
REMARK   17  A    between atoms: _40  and  _42
REMARK   18  A    between atoms: _42  and  _43
REMARK   19  A    between atoms: _42  and  _45
REMARK   20  A    between atoms: _45  and  _46
REMARK   21  A    between atoms: _51  and  _53
REMARK   22  A    between atoms: _53  and  _54
REMARK   23  A    between atoms: _53  and  _56
REMARK   24  A    between atoms: _56  and  _57
REMARK   25  A    between atoms: _57  and  _58
REMARK   26  A    between atoms: _60  and  _62
REMARK   27  A    between atoms: _62  and  _63
REMARK   28  A    between atoms: _62  and  _65
REMARK   29  A    between atoms: _65  and  _66
REMARK   30  A    between atoms: _72  and  _74
REMARK   31  A    between atoms: _74  and  _75
REMARK   32  A    between atoms: _74  and  _77
REMARK   33  A    between atoms: _77  and  _78
REMARK   34  A    between atoms: _78  and  _79
REMARK   35  A    between atoms: _84  and  _86
REMARK   36  A    between atoms: _86  and  _87
REMARK   37  A    between atoms: _86  and  _89
REMARK   38  A    between atoms: _92  and  _94
REMARK   39  A    between atoms: _94  and  _95
REMARK   40  A    between atoms: _94  and  _97
REMARK   41  A    between atoms: _97  and  _98
REMARK   42  A    between atoms: _103  and  _104
REMARK   43  A    between atoms: _106  and  _108
REMARK   44  A    between atoms: _108  and  _109
REMARK   45  A    between atoms: _108  and  _111
REMARK   46  A    between atoms: _111  and  _112
REMARK   47  A    between atoms: _112  and  _113
REMARK   48  A    between atoms: _113  and  _114
REMARK   49  A    between atoms: _123  and  _125
REMARK   50  A    between atoms: _125  and  _126
REMARK   51  A    between atoms: _125  and  _128
REMARK   52  A    between atoms: _131  and  _133
REMARK   53  A    between atoms: _133  and  _134
REMARK   54  A    between atoms: _133  and  _136
REMARK   55  A    between atoms: _136  and  _137
REMARK   56  A    between atoms: _139  and  _141
REMARK   57  A    between atoms: _141  and  _142
REMARK   58  A    between atoms: _141  and  _144
REMARK   59  A    between atoms: _144  and  _145
REMARK   60  A    between atoms: _151  and  _153
REMARK   61  A    between atoms: _153  and  _154
REMARK   62  A    between atoms: _153  and  _156
REMARK   63  A    between atoms: _156  and  _157
REMARK   64  A    between atoms: _160  and  _162
REMARK   65  A    between atoms: _162  and  _163
REMARK   66  A    between atoms: _162  and  _165
REMARK   67  A    between atoms: _165  and  _166
REMARK   68  A    between atoms: _166  and  _167
REMARK   69  A    between atoms: _167  and  _168
REMARK   70  A    between atoms: _177  and  _179
REMARK   71  A    between atoms: _179  and  _180
REMARK   72  A    between atoms: _179  and  _182
REMARK   73  A    between atoms: _182  and  _183
REMARK   74  A    between atoms: _186  and  _188
REMARK   75  A    between atoms: _188  and  _189
REMARK   76  A    between atoms: _188  and  _191
REMARK   77  A    between atoms: _191  and  _192
REMARK   78  A    between atoms: _195  and  _197
REMARK   79  A    between atoms: _197  and  _198
REMARK   80  A    between atoms: _197  and  _200
REMARK   81  A    between atoms: _200  and  _201
REMARK   82  A    between atoms: _201  and  _202
REMARK   83  A    between atoms: _207  and  _209
REMARK   84  A    between atoms: _209  and  _210
REMARK   85  A    between atoms: _209  and  _212
REMARK   86  A    between atoms: _212  and  _213
REMARK   87  A    between atoms: _213  and  _214
REMARK   88  A    between atoms: _217  and  _219
REMARK   89  A    between atoms: _219  and  _220
REMARK   90  A    between atoms: _219  and  _222
REMARK   91  A    between atoms: _222  and  _223
REMARK   92  A    between atoms: _226  and  _228
REMARK   93  A    between atoms: _228  and  _229
REMARK   94  A    between atoms: _228  and  _231
REMARK   95  A    between atoms: _234  and  _236
REMARK   96  A    between atoms: _236  and  _237
REMARK   97  A    between atoms: _236  and  _239
REMARK   98  A    between atoms: _239  and  _240
REMARK   99  A    between atoms: _240  and  _241
REMARK  100  A    between atoms: _241  and  _242
REMARK  101  A    between atoms: _242  and  _243
REMARK  102  A    between atoms: _247  and  _249
REMARK  103  A    between atoms: _249  and  _250
REMARK  104  A    between atoms: _249  and  _252
REMARK  105  A    between atoms: _252  and  _253
REMARK  106  A    between atoms: _253  and  _254
REMARK  107  A    between atoms: _256  and  _258
REMARK  108  A    between atoms: _258  and  _259
REMARK  109  A    between atoms: _258  and  _261
REMARK  110  A    between atoms: _261  and  _262
REMARK  111  A    between atoms: _262  and  _263
REMARK  112  A    between atoms: _265  and  _267
REMARK  113  A    between atoms: _267  and  _268
REMARK  114  A    between atoms: _267  and  _270
REMARK  115  A    between atoms: _270  and  _271
REMARK  116  A    between atoms: _273  and  _275
REMARK  117  A    between atoms: _275  and  _276
REMARK  118  A    between atoms: _275  and  _278
REMARK  119  A    between atoms: _278  and  _279
REMARK  120  A    between atoms: _279  and  _280
REMARK  121  A    between atoms: _283  and  _285
REMARK  122  A    between atoms: _285  and  _286
REMARK  123  A    between atoms: _285  and  _288
REMARK  124  A    between atoms: _288  and  _289
REMARK  125  A    between atoms: _292  and  _294
REMARK  126  A    between atoms: _294  and  _295
REMARK  127  A    between atoms: _294  and  _297
REMARK  128  A    between atoms: _297  and  _298
REMARK  129  A    between atoms: _301  and  _303
REMARK  130  A    between atoms: _303  and  _304
REMARK  131  A    between atoms: _303  and  _306
REMARK  132  A    between atoms: _306  and  _307
REMARK  133  A    between atoms: _307  and  _308
REMARK  134  A    between atoms: _311  and  _313
REMARK  135  A    between atoms: _313  and  _314
REMARK  136  A    between atoms: _313  and  _316
REMARK  137  A    between atoms: _316  and  _317
REMARK  138  A    between atoms: _320  and  _322
REMARK  139  A    between atoms: _322  and  _323
REMARK  140  A    between atoms: _322  and  _325
REMARK  141  A    between atoms: _325  and  _326
REMARK  142  A    between atoms: _326  and  _327
REMARK  143  A    between atoms: _332  and  _334
REMARK  144  A    between atoms: _334  and  _335
REMARK  145  A    between atoms: _334  and  _337
REMARK  146  A    between atoms: _337  and  _338
REMARK  147  A    between atoms: _341  and  _343
REMARK  148  A    between atoms: _343  and  _344
REMARK  149  A    between atoms: _343  and  _346
REMARK  150  A    between atoms: _346  and  _347
REMARK  151  A    between atoms: _349  and  _351
REMARK  152  A    between atoms: _351  and  _352
REMARK  153  A    between atoms: _355  and  _357
REMARK  154  A    between atoms: _357  and  _358
REMARK  155  A    between atoms: _357  and  _360
REMARK  156  A    between atoms: _360  and  _361
REMARK  157  A    between atoms: _367  and  _369
REMARK  158  A    between atoms: _369  and  _370
REMARK  159  A    between atoms: _369  and  _372
REMARK  160  A    between atoms: _372  and  _373
REMARK  161  A    between atoms: _376  and  _378
REMARK  162  A    between atoms: _378  and  _379
REMARK  163  A    between atoms: _378  and  _381
REMARK  164  A    between atoms: _381  and  _382
REMARK  165  A    between atoms: _387  and  _389
REMARK  166  A    between atoms: _389  and  _390
REMARK  167  A    between atoms: _389  and  _392
REMARK  168  A    between atoms: _395  and  _397
REMARK  169  A    between atoms: _397  and  _398
REMARK  170  A    between atoms: _401  and  _403
REMARK  171  A    between atoms: _403  and  _404
REMARK  172  A    between atoms: _403  and  _406
REMARK  173  A    between atoms: _406  and  _407
REMARK  174  A    between atoms: _413  and  _415
REMARK  175  A    between atoms: _415  and  _416
REMARK  176  A    between atoms: _415  and  _418
REMARK  177  A    between atoms: _418  and  _419
REMARK  178  A    between atoms: _419  and  _420
REMARK  179  A    between atoms: _425  and  _427
REMARK  180  A    between atoms: _427  and  _428
REMARK  181  A    between atoms: _427  and  _430
REMARK  182  A    between atoms: _430  and  _431
REMARK  183  A    between atoms: _431  and  _432
REMARK  184  A    between atoms: _432  and  _433
REMARK  185  A    between atoms: _433  and  _434
REMARK  186  A    between atoms: _438  and  _440
REMARK  187  A    between atoms: _440  and  _441
REMARK  188  A    between atoms: _440  and  _443
REMARK  189  A    between atoms: _446  and  _448
REMARK  190  A    between atoms: _448  and  _449
REMARK  191  A    between atoms: _448  and  _451
REMARK  192  A    between atoms: _454  and  _456
REMARK  193  A    between atoms: _456  and  _457
REMARK  194  A    between atoms: _456  and  _459
REMARK  195  A    between atoms: _459  and  _460
REMARK  196  A    between atoms: _460  and  _461
REMARK  197  A    between atoms: _461  and  _462
REMARK  198  A    between atoms: _471  and  _473
REMARK  199  A    between atoms: _473  and  _474
REMARK  200  A    between atoms: _473  and  _476
REMARK  201  A    between atoms: _476  and  _477
REMARK  202  A    between atoms: _483  and  _485
REMARK  203  A    between atoms: _485  and  _486
REMARK  204  A    between atoms: _485  and  _488
REMARK  205  A    between atoms: _488  and  _489
REMARK  206  A    between atoms: _499  and  _501
REMARK  207  A    between atoms: _501  and  _502
REMARK  208  A    between atoms: _501  and  _504
REMARK  209  A    between atoms: _504  and  _505
REMARK  210  A    between atoms: _508  and  _510
REMARK  211  A    between atoms: _510  and  _511
REMARK  212  A    between atoms: _510  and  _513
REMARK  213  A    between atoms: _513  and  _514
REMARK  214  A    between atoms: _524  and  _526
REMARK  215  A    between atoms: _526  and  _527
REMARK  216  A    between atoms: _526  and  _529
REMARK  217  A    between atoms: _529  and  _530
REMARK  218  A    between atoms: _534  and  _535
REMARK  219  A    between atoms: _540  and  _542
REMARK  220  A    between atoms: _542  and  _543
REMARK  221  A    between atoms: _542  and  _545
REMARK  222  A    between atoms: _545  and  _546
REMARK  223  A    between atoms: _549  and  _551
REMARK  224  A    between atoms: _551  and  _552
REMARK  225  A    between atoms: _551  and  _554
REMARK  226  A    between atoms: _554  and  _555
REMARK  227  A    between atoms: _558  and  _560
REMARK  228  A    between atoms: _560  and  _561
REMARK  229  A    between atoms: _564  and  _566
REMARK  230  A    between atoms: _566  and  _567
REMARK  231  A    between atoms: _566  and  _569
REMARK  232  A    between atoms: _569  and  _570
REMARK  233  A    between atoms: _573  and  _575
REMARK  234  A    between atoms: _575  and  _576
REMARK  235  A    between atoms: _575  and  _578
REMARK  236  A    between atoms: _578  and  _579
REMARK  237  A    between atoms: _579  and  _580
REMARK  238  A    between atoms: _585  and  _587
REMARK  239  A    between atoms: _587  and  _588
REMARK  240  A    between atoms: _590  and  _592
REMARK  241  A    between atoms: _592  and  _593
REMARK  242  A    between atoms: _592  and  _595
REMARK  243  A    between atoms: _595  and  _596
REMARK  244  A    between atoms: _599  and  _601
REMARK  245  A    between atoms: _601  and  _602
REMARK  246  A    between atoms: _601  and  _604
REMARK  247  A    between atoms: _604  and  _605
REMARK  248  A    between atoms: _607  and  _609
REMARK  249  A    between atoms: _609  and  _610
REMARK  250  A    between atoms: _613  and  _615
REMARK  251  A    between atoms: _615  and  _616
REMARK  252  A    between atoms: _615  and  _618
REMARK  253  A    between atoms: _618  and  _619
REMARK  254  A    between atoms: _622  and  _624
REMARK  255  A    between atoms: _624  and  _625
REMARK  256  A    between atoms: _624  and  _627
REMARK  257  A    between atoms: _630  and  _632
REMARK  258  A    between atoms: _632  and  _633
REMARK  259  A    between atoms: _632  and  _635
REMARK  260  A    between atoms: _635  and  _636
REMARK  261  A    between atoms: _636  and  _637
REMARK  262  A    between atoms: _642  and  _644
REMARK  263  A    between atoms: _644  and  _645
REMARK  264  A    between atoms: _644  and  _647
REMARK  265  A    between atoms: _647  and  _648
REMARK  266  A    between atoms: _651  and  _653
REMARK  267  A    between atoms: _653  and  _654
REMARK  268  A    between atoms: _653  and  _656
REMARK  269  A    between atoms: _656  and  _657
REMARK                            x       y       z     vdW  Elec       q    Type
REMARK                         _______ _______ _______ _____ _____    ______ ____
ROOT
ATOM      1  O   HOH     1     -19.696   8.048   0.385  0.00  0.00    +0.000 OA
ENDROOT
TORSDOF 0
REMARK  Name = ../refined-set-2016/2q7y/2q7y_pocket.pdb
REMARK  269 active torsions:
REMARK  status: ('A' for Active; 'I' for Inactive)
REMARK    1  A    between atoms: _1  and  _3
REMARK    2  A    between atoms: _3  and  _4
REMARK    3  A    between atoms: _3  and  _6
REMARK    4  A    between atoms: _8  and  _10
REMARK    5  A    between atoms: _10  and  _11
REMARK    6  A    between atoms: _10  and  _13
REMARK    7  A    between atoms: _13  and  _14
REMARK    8  A    between atoms: _14  and  _15
REMARK    9  A    between atoms: _20  and  _22
REMARK   10  A    between atoms: _22  and  _23
REMARK   11  A    between atoms: _22  and  _25
REMARK   12  A    between atoms: _25  and  _26
REMARK   13  A    between atoms: _32  and  _34
REMARK   14  A    between atoms: _34  and  _35
REMARK   15  A    between atoms: _34  and  _37
REMARK   16  A    between atoms: _37  and  _38
REMARK   17  A    between atoms: _40  and  _42
REMARK   18  A    between atoms: _42  and  _43
REMARK   19  A    between atoms: _42  and  _45
REMARK   20  A    between atoms: _45  and  _46
REMARK   21  A    between atoms: _51  and  _53
REMARK   22  A    between atoms: _53  and  _54
REMARK   23  A    between atoms: _53  and  _56
REMARK   24  A    between atoms: _56  and  _57
REMARK   25  A    between atoms: _57  and  _58
REMARK   26  A    between atoms: _60  and  _62
REMARK   27  A    between atoms: _62  and  _63
REMARK   28  A    between atoms: _62  and  _65
REMARK   29  A    between atoms: _65  and  _66
REMARK   30  A    between atoms: _72  and  _74
REMARK   31  A    between atoms: _74  and  _75
REMARK   32  A    between atoms: _74  and  _77
REMARK   33  A    between atoms: _77  and  _78
REMARK   34  A    between atoms: _78  and  _79
REMARK   35  A    between atoms: _84  and  _86
REMARK   36  A    between atoms: _86  and  _87
REMARK   37  A    between atoms: _86  and  _89
REMARK   38  A    between atoms: _92  and  _94
REMARK   39  A    between atoms: _94  and  _95
REMARK   40  A    between atoms: _94  and  _97
REMARK   41  A    between atoms: _97  and  _98
REMARK   42  A    between atoms: _103  and  _104
REMARK   43  A    between atoms: _106  and  _108
REMARK   44  A    between atoms: _108  and  _109
REMARK   45  A    between atoms: _108  and  _111
REMARK   46  A    between atoms: _111  and  _112
REMARK   47  A    between atoms: _112  and  _113
REMARK   48  A    between atoms: _113  and  _114
REMARK   49  A    between atoms: _123  and  _125
REMARK   50  A    between atoms: _125  and  _126
REMARK   51  A    between atoms: _125  and  _128
REMARK   52  A    between atoms: _131  and  _133
REMARK   53  A    between atoms: _133  and  _134
REMARK   54  A    between atoms: _133  and  _136
REMARK   55  A    between atoms: _136  and  _137
REMARK   56  A    between atoms: _139  and  _141
REMARK   57  A    between atoms: _141  and  _142
REMARK   58  A    between atoms: _141  and  _144
REMARK   59  A    between atoms: _144  and  _145
REMARK   60  A    between atoms: _151  and  _153
REMARK   61  A    between atoms: _153  and  _154
REMARK   62  A    between atoms: _153  and  _156
REMARK   63  A    between atoms: _156  and  _157
REMARK   64  A    between atoms: _160  and  _162
REMARK   65  A    between atoms: _162  and  _163
REMARK   66  A    between atoms: _162  and  _165
REMARK   67  A    between atoms: _165  and  _166
REMARK   68  A    between atoms: _166  and  _167
REMARK   69  A    between atoms: _167  and  _168
REMARK   70  A    between atoms: _177  and  _179
REMARK   71  A    between atoms: _179  and  _180
REMARK   72  A    between atoms: _179  and  _182
REMARK   73  A    between atoms: _182  and  _183
REMARK   74  A    between atoms: _186  and  _188
REMARK   75  A    between atoms: _188  and  _189
REMARK   76  A    between atoms: _188  and  _191
REMARK   77  A    between atoms: _191  and  _192
REMARK   78  A    between atoms: _195  and  _197
REMARK   79  A    between atoms: _197  and  _198
REMARK   80  A    between atoms: _197  and  _200
REMARK   81  A    between atoms: _200  and  _201
REMARK   82  A    between atoms: _201  and  _202
REMARK   83  A    between atoms: _207  and  _209
REMARK   84  A    between atoms: _209  and  _210
REMARK   85  A    between atoms: _209  and  _212
REMARK   86  A    between atoms: _212  and  _213
REMARK   87  A    between atoms: _213  and  _214
REMARK   88  A    between atoms: _217  and  _219
REMARK   89  A    between atoms: _219  and  _220
REMARK   90  A    between atoms: _219  and  _222
REMARK   91  A    between atoms: _222  and  _223
REMARK   92  A    between atoms: _226  and  _228
REMARK   93  A    between atoms: _228  and  _229
REMARK   94  A    between atoms: _228  and  _231
REMARK   95  A    between atoms: _234  and  _236
REMARK   96  A    between atoms: _236  and  _237
REMARK   97  A    between atoms: _236  and  _239
REMARK   98  A    between atoms: _239  and  _240
REMARK   99  A    between atoms: _240  and  _241
REMARK  100  A    between atoms: _241  and  _242
REMARK  101  A    between atoms: _242  and  _243
REMARK  102  A    between atoms: _247  and  _249
REMARK  103  A    between atoms: _249  and  _250
REMARK  104  A    between atoms: _249  and  _252
REMARK  105  A    between atoms: _252  and  _253
REMARK  106  A    between atoms: _253  and  _254
REMARK  107  A    between atoms: _256  and  _258
REMARK  108  A    between atoms: _258  and  _259
REMARK  109  A    between atoms: _258  and  _261
REMARK  110  A    between atoms: _261  and  _262
REMARK  111  A    between atoms: _262  and  _263
REMARK  112  A    between atoms: _265  and  _267
REMARK  113  A    between atoms: _267  and  _268
REMARK  114  A    between atoms: _267  and  _270
REMARK  115  A    between atoms: _270  and  _271
REMARK  116  A    between atoms: _273  and  _275
REMARK  117  A    between atoms: _275  and  _276
REMARK  118  A    between atoms: _275  and  _278
REMARK  119  A    between atoms: _278  and  _279
REMARK  120  A    between atoms: _279  and  _280
REMARK  121  A    between atoms: _283  and  _285
REMARK  122  A    between atoms: _285  and  _286
REMARK  123  A    between atoms: _285  and  _288
REMARK  124  A    between atoms: _288  and  _289
REMARK  125  A    between atoms: _292  and  _294
REMARK  126  A    between atoms: _294  and  _295
REMARK  127  A    between atoms: _294  and  _297
REMARK  128  A    between atoms: _297  and  _298
REMARK  129  A    between atoms: _301  and  _303
REMARK  130  A    between atoms: _303  and  _304
REMARK  131  A    between atoms: _303  and  _306
REMARK  132  A    between atoms: _306  and  _307
REMARK  133  A    between atoms: _307  and  _308
REMARK  134  A    between atoms: _311  and  _313
REMARK  135  A    between atoms: _313  and  _314
REMARK  136  A    between atoms: _313  and  _316
REMARK  137  A    between atoms: _316  and  _317
REMARK  138  A    between atoms: _320  and  _322
REMARK  139  A    between atoms: _322  and  _323
REMARK  140  A    between atoms: _322  and  _325
REMARK  141  A    between atoms: _325  and  _326
REMARK  142  A    between atoms: _326  and  _327
REMARK  143  A    between atoms: _332  and  _334
REMARK  144  A    between atoms: _334  and  _335
REMARK  145  A    between atoms: _334  and  _337
REMARK  146  A    between atoms: _337  and  _338
REMARK  147  A    between atoms: _341  and  _343
REMARK  148  A    between atoms: _343  and  _344
REMARK  149  A    between atoms: _343  and  _346
REMARK  150  A    between atoms: _346  and  _347
REMARK  151  A    between atoms: _349  and  _351
REMARK  152  A    between atoms: _351  and  _352
REMARK  153  A    between atoms: _355  and  _357
REMARK  154  A    between atoms: _357  and  _358
REMARK  155  A    between atoms: _357  and  _360
REMARK  156  A    between atoms: _360  and  _361
REMARK  157  A    between atoms: _367  and  _369
REMARK  158  A    between atoms: _369  and  _370
REMARK  159  A    between atoms: _369  and  _372
REMARK  160  A    between atoms: _372  and  _373
REMARK  161  A    between atoms: _376  and  _378
REMARK  162  A    between atoms: _378  and  _379
REMARK  163  A    between atoms: _378  and  _381
REMARK  164  A    between atoms: _381  and  _382
REMARK  165  A    between atoms: _387  and  _389
REMARK  166  A    between atoms: _389  and  _390
REMARK  167  A    between atoms: _389  and  _392
REMARK  168  A    between atoms: _395  and  _397
REMARK  169  A    between atoms: _397  and  _398
REMARK  170  A    between atoms: _401  and  _403
REMARK  171  A    between atoms: _403  and  _404
REMARK  172  A    between atoms: _403  and  _406
REMARK  173  A    between atoms: _406  and  _407
REMARK  174  A    between atoms: _413  and  _415
REMARK  175  A    between atoms: _415  and  _416
REMARK  176  A    between atoms: _415  and  _418
REMARK  177  A    between atoms: _418  and  _419
REMARK  178  A    between atoms: _419  and  _420
REMARK  179  A    between atoms: _425  and  _427
REMARK  180  A    between atoms: _427  and  _428
REMARK  181  A    between atoms: _427  and  _430
REMARK  182  A    between atoms: _430  and  _431
REMARK  183  A    between atoms: _431  and  _432
REMARK  184  A    between atoms: _432  and  _433
REMARK  185  A    between atoms: _433  and  _434
REMARK  186  A    between atoms: _438  and  _440
REMARK  187  A    between atoms: _440  and  _441
REMARK  188  A    between atoms: _440  and  _443
REMARK  189  A    between atoms: _446  and  _448
REMARK  190  A    between atoms: _448  and  _449
REMARK  191  A    between atoms: _448  and  _451
REMARK  192  A    between atoms: _454  and  _456
REMARK  193  A    between atoms: _456  and  _457
REMARK  194  A    between atoms: _456  and  _459
REMARK  195  A    between atoms: _459  and  _460
REMARK  196  A    between atoms: _460  and  _461
REMARK  197  A    between atoms: _461  and  _462
REMARK  198  A    between atoms: _471  and  _473
REMARK  199  A    between atoms: _473  and  _474
REMARK  200  A    between atoms: _473  and  _476
REMARK  201  A    between atoms: _476  and  _477
REMARK  202  A    between atoms: _483  and  _485
REMARK  203  A    between atoms: _485  and  _486
REMARK  204  A    between atoms: _485  and  _488
REMARK  205  A    between atoms: _488  and  _489
REMARK  206  A    between atoms: _499  and  _501
REMARK  207  A    between atoms: _501  and  _502
REMARK  208  A    between atoms: _501  and  _504
REMARK  209  A    between atoms: _504  and  _505
REMARK  210  A    between atoms: _508  and  _510
REMARK  211  A    between atoms: _510  and  _511
REMARK  212  A    between atoms: _510  and  _513
REMARK  213  A    between atoms: _513  and  _514
REMARK  214  A    between atoms: _524  and  _526
REMARK  215  A    between atoms: _526  and  _527
REMARK  216  A    between atoms: _526  and  _529
REMARK  217  A    between atoms: _529  and  _530
REMARK  218  A    between atoms: _534  and  _535
REMARK  219  A    between atoms: _540  and  _542
REMARK  220  A    between atoms: _542  and  _543
REMARK  221  A    between atoms: _542  and  _545
REMARK  222  A    between atoms: _545  and  _546
REMARK  223  A    between atoms: _549  and  _551
REMARK  224  A    between atoms: _551  and  _552
REMARK  225  A    between atoms: _551  and  _554
REMARK  226  A    between atoms: _554  and  _555
REMARK  227  A    between atoms: _558  and  _560
REMARK  228  A    between atoms: _560  and  _561
REMARK  229  A    between atoms: _564  and  _566
REMARK  230  A    between atoms: _566  and  _567
REMARK  231  A    between atoms: _566  and  _569
REMARK  232  A    between atoms: _569  and  _570
REMARK  233  A    between atoms: _573  and  _575
REMARK  234  A    between atoms: _575  and  _576
REMARK  235  A    between atoms: _575  and  _578
REMARK  236  A    between atoms: _578  and  _579
REMARK  237  A    between atoms: _579  and  _580
REMARK  238  A    between atoms: _585  and  _587
REMARK  239  A    between atoms: _587  and  _588
REMARK  240  A    between atoms: _590  and  _592
REMARK  241  A    between atoms: _592  and  _593
REMARK  242  A    between atoms: _592  and  _595
REMARK  243  A    between atoms: _595  and  _596
REMARK  244  A    between atoms: _599  and  _601
REMARK  245  A    between atoms: _601  and  _602
REMARK  246  A    between atoms: _601  and  _604
REMARK  247  A    between atoms: _604  and  _605
REMARK  248  A    between atoms: _607  and  _609
REMARK  249  A    between atoms: _609  and  _610
REMARK  250  A    between atoms: _613  and  _615
REMARK  251  A    between atoms: _615  and  _616
REMARK  252  A    between atoms: _615  and  _618
REMARK  253  A    between atoms: _618  and  _619
REMARK  254  A    between atoms: _622  and  _624
REMARK  255  A    between atoms: _624  and  _625
REMARK  256  A    between atoms: _624  and  _627
REMARK  257  A    between atoms: _630  and  _632
REMARK  258  A    between atoms: _632  and  _633
REMARK  259  A    between atoms: _632  and  _635
REMARK  260  A    between atoms: _635  and  _636
REMARK  261  A    between atoms: _636  and  _637
REMARK  262  A    between atoms: _642  and  _644
REMARK  263  A    between atoms: _644  and  _645
REMARK  264  A    between atoms: _644  and  _647
REMARK  265  A    between atoms: _647  and  _648
REMARK  266  A    between atoms: _651  and  _653
REMARK  267  A    between atoms: _653  and  _654
REMARK  268  A    between atoms: _653  and  _656
REMARK  269  A    between atoms: _656  and  _657
REMARK                            x       y       z     vdW  Elec       q    Type
REMARK                         _______ _______ _______ _____ _____    ______ ____
ROOT
ATOM      1  O   HOH     1     -16.955   5.305  11.356  0.00  0.00    +0.000 OA
ENDROOT
TORSDOF 0
REMARK  Name = ../refined-set-2016/2q7y/2q7y_pocket.pdb
REMARK  269 active torsions:
REMARK  status: ('A' for Active; 'I' for Inactive)
REMARK    1  A    between atoms: _1  and  _3
REMARK    2  A    between atoms: _3  and  _4
REMARK    3  A    between atoms: _3  and  _6
REMARK    4  A    between atoms: _8  and  _10
REMARK    5  A    between atoms: _10  and  _11
REMARK    6  A    between atoms: _10  and  _13
REMARK    7  A    between atoms: _13  and  _14
REMARK    8  A    between atoms: _14  and  _15
REMARK    9  A    between atoms: _20  and  _22
REMARK   10  A    between atoms: _22  and  _23
REMARK   11  A    between atoms: _22  and  _25
REMARK   12  A    between atoms: _25  and  _26
REMARK   13  A    between atoms: _32  and  _34
REMARK   14  A    between atoms: _34  and  _35
REMARK   15  A    between atoms: _34  and  _37
REMARK   16  A    between atoms: _37  and  _38
REMARK   17  A    between atoms: _40  and  _42
REMARK   18  A    between atoms: _42  and  _43
REMARK   19  A    between atoms: _42  and  _45
REMARK   20  A    between atoms: _45  and  _46
REMARK   21  A    between atoms: _51  and  _53
REMARK   22  A    between atoms: _53  and  _54
REMARK   23  A    between atoms: _53  and  _56
REMARK   24  A    between atoms: _56  and  _57
REMARK   25  A    between atoms: _57  and  _58
REMARK   26  A    between atoms: _60  and  _62
REMARK   27  A    between atoms: _62  and  _63
REMARK   28  A    between atoms: _62  and  _65
REMARK   29  A    between atoms: _65  and  _66
REMARK   30  A    between atoms: _72  and  _74
REMARK   31  A    between atoms: _74  and  _75
REMARK   32  A    between atoms: _74  and  _77
REMARK   33  A    between atoms: _77  and  _78
REMARK   34  A    between atoms: _78  and  _79
REMARK   35  A    between atoms: _84  and  _86
REMARK   36  A    between atoms: _86  and  _87
REMARK   37  A    between atoms: _86  and  _89
REMARK   38  A    between atoms: _92  and  _94
REMARK   39  A    between atoms: _94  and  _95
REMARK   40  A    between atoms: _94  and  _97
REMARK   41  A    between atoms: _97  and  _98
REMARK   42  A    between atoms: _103  and  _104
REMARK   43  A    between atoms: _106  and  _108
REMARK   44  A    between atoms: _108  and  _109
REMARK   45  A    between atoms: _108  and  _111
REMARK   46  A    between atoms: _111  and  _112
REMARK   47  A    between atoms: _112  and  _113
REMARK   48  A    between atoms: _113  and  _114
REMARK   49  A    between atoms: _123  and  _125
REMARK   50  A    between atoms: _125  and  _126
REMARK   51  A    between atoms: _125  and  _128
REMARK   52  A    between atoms: _131  and  _133
REMARK   53  A    between atoms: _133  and  _134
REMARK   54  A    between atoms: _133  and  _136
REMARK   55  A    between atoms: _136  and  _137
REMARK   56  A    between atoms: _139  and  _141
REMARK   57  A    between atoms: _141  and  _142
REMARK   58  A    between atoms: _141  and  _144
REMARK   59  A    between atoms: _144  and  _145
REMARK   60  A    between atoms: _151  and  _153
REMARK   61  A    between atoms: _153  and  _154
REMARK   62  A    between atoms: _153  and  _156
REMARK   63  A    between atoms: _156  and  _157
REMARK   64  A    between atoms: _160  and  _162
REMARK   65  A    between atoms: _162  and  _163
REMARK   66  A    between atoms: _162  and  _165
REMARK   67  A    between atoms: _165  and  _166
REMARK   68  A    between atoms: _166  and  _167
REMARK   69  A    between atoms: _167  and  _168
REMARK   70  A    between atoms: _177  and  _179
REMARK   71  A    between atoms: _179  and  _180
REMARK   72  A    between atoms: _179  and  _182
REMARK   73  A    between atoms: _182  and  _183
REMARK   74  A    between atoms: _186  and  _188
REMARK   75  A    between atoms: _188  and  _189
REMARK   76  A    between atoms: _188  and  _191
REMARK   77  A    between atoms: _191  and  _192
REMARK   78  A    between atoms: _195  and  _197
REMARK   79  A    between atoms: _197  and  _198
REMARK   80  A    between atoms: _197  and  _200
REMARK   81  A    between atoms: _200  and  _201
REMARK   82  A    between atoms: _201  and  _202
REMARK   83  A    between atoms: _207  and  _209
REMARK   84  A    between atoms: _209  and  _210
REMARK   85  A    between atoms: _209  and  _212
REMARK   86  A    between atoms: _212  and  _213
REMARK   87  A    between atoms: _213  and  _214
REMARK   88  A    between atoms: _217  and  _219
REMARK   89  A    between atoms: _219  and  _220
REMARK   90  A    between atoms: _219  and  _222
REMARK   91  A    between atoms: _222  and  _223
REMARK   92  A    between atoms: _226  and  _228
REMARK   93  A    between atoms: _228  and  _229
REMARK   94  A    between atoms: _228  and  _231
REMARK   95  A    between atoms: _234  and  _236
REMARK   96  A    between atoms: _236  and  _237
REMARK   97  A    between atoms: _236  and  _239
REMARK   98  A    between atoms: _239  and  _240
REMARK   99  A    between atoms: _240  and  _241
REMARK  100  A    between atoms: _241  and  _242
REMARK  101  A    between atoms: _242  and  _243
REMARK  102  A    between atoms: _247  and  _249
REMARK  103  A    between atoms: _249  and  _250
REMARK  104  A    between atoms: _249  and  _252
REMARK  105  A    between atoms: _252  and  _253
REMARK  106  A    between atoms: _253  and  _254
REMARK  107  A    between atoms: _256  and  _258
REMARK  108  A    between atoms: _258  and  _259
REMARK  109  A    between atoms: _258  and  _261
REMARK  110  A    between atoms: _261  and  _262
REMARK  111  A    between atoms: _262  and  _263
REMARK  112  A    between atoms: _265  and  _267
REMARK  113  A    between atoms: _267  and  _268
REMARK  114  A    between atoms: _267  and  _270
REMARK  115  A    between atoms: _270  and  _271
REMARK  116  A    between atoms: _273  and  _275
REMARK  117  A    between atoms: _275  and  _276
REMARK  118  A    between atoms: _275  and  _278
REMARK  119  A    between atoms: _278  and  _279
REMARK  120  A    between atoms: _279  and  _280
REMARK  121  A    between atoms: _283  and  _285
REMARK  122  A    between atoms: _285  and  _286
REMARK  123  A    between atoms: _285  and  _288
REMARK  124  A    between atoms: _288  and  _289
REMARK  125  A    between atoms: _292  and  _294
REMARK  126  A    between atoms: _294  and  _295
REMARK  127  A    between atoms: _294  and  _297
REMARK  128  A    between atoms: _297  and  _298
REMARK  129  A    between atoms: _301  and  _303
REMARK  130  A    between atoms: _303  and  _304
REMARK  131  A    between atoms: _303  and  _306
REMARK  132  A    between atoms: _306  and  _307
REMARK  133  A    between atoms: _307  and  _308
REMARK  134  A    between atoms: _311  and  _313
REMARK  135  A    between atoms: _313  and  _314
REMARK  136  A    between atoms: _313  and  _316
REMARK  137  A    between atoms: _316  and  _317
REMARK  138  A    between atoms: _320  and  _322
REMARK  139  A    between atoms: _322  and  _323
REMARK  140  A    between atoms: _322  and  _325
REMARK  141  A    between atoms: _325  and  _326
REMARK  142  A    between atoms: _326  and  _327
REMARK  143  A    between atoms: _332  and  _334
REMARK  144  A    between atoms: _334  and  _335
REMARK  145  A    between atoms: _334  and  _337
REMARK  146  A    between atoms: _337  and  _338
REMARK  147  A    between atoms: _341  and  _343
REMARK  148  A    between atoms: _343  and  _344
REMARK  149  A    between atoms: _343  and  _346
REMARK  150  A    between atoms: _346  and  _347
REMARK  151  A    between atoms: _349  and  _351
REMARK  152  A    between atoms: _351  and  _352
REMARK  153  A    between atoms: _355  and  _357
REMARK  154  A    between atoms: _357  and  _358
REMARK  155  A    between atoms: _357  and  _360
REMARK  156  A    between atoms: _360  and  _361
REMARK  157  A    between atoms: _367  and  _369
REMARK  158  A    between atoms: _369  and  _370
REMARK  159  A    between atoms: _369  and  _372
REMARK  160  A    between atoms: _372  and  _373
REMARK  161  A    between atoms: _376  and  _378
REMARK  162  A    between atoms: _378  and  _379
REMARK  163  A    between atoms: _378  and  _381
REMARK  164  A    between atoms: _381  and  _382
REMARK  165  A    between atoms: _387  and  _389
REMARK  166  A    between atoms: _389  and  _390
REMARK  167  A    between atoms: _389  and  _392
REMARK  168  A    between atoms: _395  and  _397
REMARK  169  A    between atoms: _397  and  _398
REMARK  170  A    between atoms: _401  and  _403
REMARK  171  A    between atoms: _403  and  _404
REMARK  172  A    between atoms: _403  and  _406
REMARK  173  A    between atoms: _406  and  _407
REMARK  174  A    between atoms: _413  and  _415
REMARK  175  A    between atoms: _415  and  _416
REMARK  176  A    between atoms: _415  and  _418
REMARK  177  A    between atoms: _418  and  _419
REMARK  178  A    between atoms: _419  and  _420
REMARK  179  A    between atoms: _425  and  _427
REMARK  180  A    between atoms: _427  and  _428
REMARK  181  A    between atoms: _427  and  _430
REMARK  182  A    between atoms: _430  and  _431
REMARK  183  A    between atoms: _431  and  _432
REMARK  184  A    between atoms: _432  and  _433
REMARK  185  A    between atoms: _433  and  _434
REMARK  186  A    between atoms: _438  and  _440
REMARK  187  A    between atoms: _440  and  _441
REMARK  188  A    between atoms: _440  and  _443
REMARK  189  A    between atoms: _446  and  _448
REMARK  190  A    between atoms: _448  and  _449
REMARK  191  A    between atoms: _448  and  _451
REMARK  192  A    between atoms: _454  and  _456
REMARK  193  A    between atoms: _456  and  _457
REMARK  194  A    between atoms: _456  and  _459
REMARK  195  A    between atoms: _459  and  _460
REMARK  196  A    between atoms: _460  and  _461
REMARK  197  A    between atoms: _461  and  _462
REMARK  198  A    between atoms: _471  and  _473
REMARK  199  A    between atoms: _473  and  _474
REMARK  200  A    between atoms: _473  and  _476
REMARK  201  A    between atoms: _476  and  _477
REMARK  202  A    between atoms: _483  and  _485
REMARK  203  A    between atoms: _485  and  _486
REMARK  204  A    between atoms: _485  and  _488
REMARK  205  A    between atoms: _488  and  _489
REMARK  206  A    between atoms: _499  and  _501
REMARK  207  A    between atoms: _501  and  _502
REMARK  208  A    between atoms: _501  and  _504
REMARK  209  A    between atoms: _504  and  _505
REMARK  210  A    between atoms: _508  and  _510
REMARK  211  A    between atoms: _510  and  _511
REMARK  212  A    between atoms: _510  and  _513
REMARK  213  A    between atoms: _513  and  _514
REMARK  214  A    between atoms: _524  and  _526
REMARK  215  A    between atoms: _526  and  _527
REMARK  216  A    between atoms: _526  and  _529
REMARK  217  A    between atoms: _529  and  _530
REMARK  218  A    between atoms: _534  and  _535
REMARK  219  A    between atoms: _540  and  _542
REMARK  220  A    between atoms: _542  and  _543
REMARK  221  A    between atoms: _542  and  _545
REMARK  222  A    between atoms: _545  and  _546
REMARK  223  A    between atoms: _549  and  _551
REMARK  224  A    between atoms: _551  and  _552
REMARK  225  A    between atoms: _551  and  _554
REMARK  226  A    between atoms: _554  and  _555
REMARK  227  A    between atoms: _558  and  _560
REMARK  228  A    between atoms: _560  and  _561
REMARK  229  A    between atoms: _564  and  _566
REMARK  230  A    between atoms: _566  and  _567
REMARK  231  A    between atoms: _566  and  _569
REMARK  232  A    between atoms: _569  and  _570
REMARK  233  A    between atoms: _573  and  _575
REMARK  234  A    between atoms: _575  and  _576
REMARK  235  A    between atoms: _575  and  _578
REMARK  236  A    between atoms: _578  and  _579
REMARK  237  A    between atoms: _579  and  _580
REMARK  238  A    between atoms: _585  and  _587
REMARK  239  A    between atoms: _587  and  _588
REMARK  240  A    between atoms: _590  and  _592
REMARK  241  A    between atoms: _592  and  _593
REMARK  242  A    between atoms: _592  and  _595
REMARK  243  A    between atoms: _595  and  _596
REMARK  244  A    between atoms: _599  and  _601
REMARK  245  A    between atoms: _601  and  _602
REMARK  246  A    between atoms: _601  and  _604
REMARK  247  A    between atoms: _604  and  _605
REMARK  248  A    between atoms: _607  and  _609
REMARK  249  A    between atoms: _609  and  _610
REMARK  250  A    between atoms: _613  and  _615
REMARK  251  A    between atoms: _615  and  _616
REMARK  252  A    between atoms: _615  and  _618
REMARK  253  A    between atoms: _618  and  _619
REMARK  254  A    between atoms: _622  and  _624
REMARK  255  A    between atoms: _624  and  _625
REMARK  256  A    between atoms: _624  and  _627
REMARK  257  A    between atoms: _630  and  _632
REMARK  258  A    between atoms: _632  and  _633
REMARK  259  A    between atoms: _632  and  _635
REMARK  260  A    between atoms: _635  and  _636
REMARK  261  A    between atoms: _636  and  _637
REMARK  262  A    between atoms: _642  and  _644
REMARK  263  A    between atoms: _644  and  _645
REMARK  264  A    between atoms: _644  and  _647
REMARK  265  A    between atoms: _647  and  _648
REMARK  266  A    between atoms: _651  and  _653
REMARK  267  A    between atoms: _653  and  _654
REMARK  268  A    between atoms: _653  and  _656
REMARK  269  A    between atoms: _656  and  _657
REMARK                            x       y       z     vdW  Elec       q    Type
REMARK                         _______ _______ _______ _____ _____    ______ ____
ROOT
ATOM      1  O   HOH     1     -26.530   4.301   1.526  0.00  0.00    +0.000 OA
ENDROOT
TORSDOF 0
