REMARK  Name = ../refined-set-2016/4ynb/4ynb_pocket.pdb
REMARK  220 active torsions:
REMARK  status: ('A' for Active; 'I' for Inactive)
REMARK    1  A    between atoms: _1  and  _3
REMARK    2  A    between atoms: _3  and  _4
REMARK    3  A    between atoms: _6  and  _8
REMARK    4  A    between atoms: _8  and  _9
REMARK    5  A    between atoms: _12  and  _14
REMARK    6  A    between atoms: _14  and  _15
REMARK    7  A    between atoms: _14  and  _17
REMARK    8  A    between atoms: _17  and  _18
REMARK    9  A    between atoms: _18  and  _19
REMARK   10  A    between atoms: _21  and  _23
REMARK   11  A    between atoms: _23  and  _24
REMARK   12  A    between atoms: _23  and  _26
REMARK   13  A    between atoms: _26  and  _27
REMARK   14  A    between atoms: _27  and  _28
REMARK   15  A    between atoms: _31  and  _33
REMARK   16  A    between atoms: _33  and  _34
REMARK   17  A    between atoms: _33  and  _36
REMARK   18  A    between atoms: _36  and  _37
REMARK   19  A    between atoms: _37  and  _38
REMARK   20  A    between atoms: _41  and  _43
REMARK   21  A    between atoms: _43  and  _44
REMARK   22  A    between atoms: _43  and  _46
REMARK   23  A    between atoms: _46  and  _47
REMARK   24  A    between atoms: _49  and  _51
REMARK   25  A    between atoms: _51  and  _52
REMARK   26  A    between atoms: _51  and  _54
REMARK   27  A    between atoms: _54  and  _55
REMARK   28  A    between atoms: _55  and  _56
REMARK   29  A    between atoms: _56  and  _57
REMARK   30  A    between atoms: _57  and  _58
REMARK   31  A    between atoms: _62  and  _64
REMARK   32  A    between atoms: _64  and  _65
REMARK   33  A    between atoms: _64  and  _67
REMARK   34  A    between atoms: _67  and  _68
REMARK   35  A    between atoms: _71  and  _73
REMARK   36  A    between atoms: _73  and  _74
REMARK   37  A    between atoms: _76  and  _78
REMARK   38  A    between atoms: _78  and  _79
REMARK   39  A    between atoms: _78  and  _81
REMARK   40  A    between atoms: _81  and  _82
REMARK   41  A    between atoms: _88  and  _90
REMARK   42  A    between atoms: _90  and  _91
REMARK   43  A    between atoms: _93  and  _95
REMARK   44  A    between atoms: _95  and  _96
REMARK   45  A    between atoms: _95  and  _98
REMARK   46  A    between atoms: _101  and  _103
REMARK   47  A    between atoms: _103  and  _104
REMARK   48  A    between atoms: _107  and  _109
REMARK   49  A    between atoms: _109  and  _110
REMARK   50  A    between atoms: _112  and  _114
REMARK   51  A    between atoms: _114  and  _115
REMARK   52  A    between atoms: _114  and  _117
REMARK   53  A    between atoms: _117  and  _118
REMARK   54  A    between atoms: _120  and  _122
REMARK   55  A    between atoms: _122  and  _123
REMARK   56  A    between atoms: _122  and  _125
REMARK   57  A    between atoms: _125  and  _126
REMARK   58  A    between atoms: _129  and  _131
REMARK   59  A    between atoms: _131  and  _132
REMARK   60  A    between atoms: _131  and  _134
REMARK   61  A    between atoms: _134  and  _135
REMARK   62  A    between atoms: _140  and  _142
REMARK   63  A    between atoms: _142  and  _143
REMARK   64  A    between atoms: _146  and  _148
REMARK   65  A    between atoms: _148  and  _149
REMARK   66  A    between atoms: _148  and  _151
REMARK   67  A    between atoms: _151  and  _152
REMARK   68  A    between atoms: _154  and  _156
REMARK   69  A    between atoms: _156  and  _157
REMARK   70  A    between atoms: _159  and  _161
REMARK   71  A    between atoms: _161  and  _162
REMARK   72  A    between atoms: _161  and  _164
REMARK   73  A    between atoms: _164  and  _165
REMARK   74  A    between atoms: _168  and  _170
REMARK   75  A    between atoms: _170  and  _171
REMARK   76  A    between atoms: _170  and  _173
REMARK   77  A    between atoms: _173  and  _174
REMARK   78  A    between atoms: _174  and  _175
REMARK   79  A    between atoms: _180  and  _182
REMARK   80  A    between atoms: _182  and  _183
REMARK   81  A    between atoms: _182  and  _185
REMARK   82  A    between atoms: _185  and  _186
REMARK   83  A    between atoms: _192  and  _194
REMARK   84  A    between atoms: _194  and  _195
REMARK   85  A    between atoms: _194  and  _197
REMARK   86  A    between atoms: _200  and  _202
REMARK   87  A    between atoms: _202  and  _203
REMARK   88  A    between atoms: _202  and  _205
REMARK   89  A    between atoms: _205  and  _206
REMARK   90  A    between atoms: _211  and  _213
REMARK   91  A    between atoms: _213  and  _214
REMARK   92  A    between atoms: _213  and  _216
REMARK   93  A    between atoms: _216  and  _217
REMARK   94  A    between atoms: _219  and  _221
REMARK   95  A    between atoms: _221  and  _222
REMARK   96  A    between atoms: _221  and  _224
REMARK   97  A    between atoms: _224  and  _225
REMARK   98  A    between atoms: _225  and  _226
REMARK   99  A    between atoms: _226  and  _227
REMARK  100  A    between atoms: _227  and  _228
REMARK  101  A    between atoms: _232  and  _234
REMARK  102  A    between atoms: _234  and  _235
REMARK  103  A    between atoms: _234  and  _237
REMARK  104  A    between atoms: _237  and  _238
REMARK  105  A    between atoms: _241  and  _243
REMARK  106  A    between atoms: _243  and  _244
REMARK  107  A    between atoms: _247  and  _249
REMARK  108  A    between atoms: _249  and  _250
REMARK  109  A    between atoms: _249  and  _252
REMARK  110  A    between atoms: _255  and  _257
REMARK  111  A    between atoms: _257  and  _258
REMARK  112  A    between atoms: _257  and  _260
REMARK  113  A    between atoms: _260  and  _261
REMARK  114  A    between atoms: _261  and  _262
REMARK  115  A    between atoms: _265  and  _267
REMARK  116  A    between atoms: _267  and  _268
REMARK  117  A    between atoms: _267  and  _270
REMARK  118  A    between atoms: _270  and  _271
REMARK  119  A    between atoms: _271  and  _272
REMARK  120  A    between atoms: _274  and  _276
REMARK  121  A    between atoms: _276  and  _277
REMARK  122  A    between atoms: _276  and  _279
REMARK  123  A    between atoms: _279  and  _280
REMARK  124  A    between atoms: _280  and  _281
REMARK  125  A    between atoms: _284  and  _286
REMARK  126  A    between atoms: _286  and  _287
REMARK  127  A    between atoms: _289  and  _291
REMARK  128  A    between atoms: _291  and  _292
REMARK  129  A    between atoms: _291  and  _294
REMARK  130  A    between atoms: _294  and  _295
REMARK  131  A    between atoms: _295  and  _296
REMARK  132  A    between atoms: _296  and  _297
REMARK  133  A    between atoms: _306  and  _308
REMARK  134  A    between atoms: _308  and  _309
REMARK  135  A    between atoms: _308  and  _311
REMARK  136  A    between atoms: _311  and  _312
REMARK  137  A    between atoms: _314  and  _316
REMARK  138  A    between atoms: _316  and  _317
REMARK  139  A    between atoms: _316  and  _319
REMARK  140  A    between atoms: _319  and  _320
REMARK  141  A    between atoms: _323  and  _325
REMARK  142  A    between atoms: _325  and  _326
REMARK  143  A    between atoms: _325  and  _328
REMARK  144  A    between atoms: _328  and  _329
REMARK  145  A    between atoms: _331  and  _333
REMARK  146  A    between atoms: _333  and  _334
REMARK  147  A    between atoms: _333  and  _336
REMARK  148  A    between atoms: _336  and  _337
REMARK  149  A    between atoms: _340  and  _342
REMARK  150  A    between atoms: _342  and  _343
REMARK  151  A    between atoms: _342  and  _345
REMARK  152  A    between atoms: _345  and  _346
REMARK  153  A    between atoms: _351  and  _353
REMARK  154  A    between atoms: _353  and  _354
REMARK  155  A    between atoms: _357  and  _359
REMARK  156  A    between atoms: _359  and  _360
REMARK  157  A    between atoms: _359  and  _362
REMARK  158  A    between atoms: _362  and  _363
REMARK  159  A    between atoms: _366  and  _368
REMARK  160  A    between atoms: _368  and  _369
REMARK  161  A    between atoms: _368  and  _371
REMARK  162  A    between atoms: _371  and  _372
REMARK  163  A    between atoms: _372  and  _373
REMARK  164  A    between atoms: _373  and  _374
REMARK  165  A    between atoms: _374  and  _375
REMARK  166  A    between atoms: _379  and  _381
REMARK  167  A    between atoms: _381  and  _382
REMARK  168  A    between atoms: _385  and  _387
REMARK  169  A    between atoms: _387  and  _388
REMARK  170  A    between atoms: _390  and  _392
REMARK  171  A    between atoms: _392  and  _393
REMARK  172  A    between atoms: _392  and  _395
REMARK  173  A    between atoms: _395  and  _396
REMARK  174  A    between atoms: _398  and  _400
REMARK  175  A    between atoms: _400  and  _401
REMARK  176  A    between atoms: _400  and  _403
REMARK  177  A    between atoms: _403  and  _404
REMARK  178  A    between atoms: _410  and  _412
REMARK  179  A    between atoms: _412  and  _413
REMARK  180  A    between atoms: _412  and  _415
REMARK  181  A    between atoms: _415  and  _416
REMARK  182  A    between atoms: _419  and  _421
REMARK  183  A    between atoms: _421  and  _422
REMARK  184  A    between atoms: _421  and  _424
REMARK  185  A    between atoms: _424  and  _425
REMARK  186  A    between atoms: _428  and  _430
REMARK  187  A    between atoms: _430  and  _431
REMARK  188  A    between atoms: _430  and  _433
REMARK  189  A    between atoms: _433  and  _434
REMARK  190  A    between atoms: _437  and  _439
REMARK  191  A    between atoms: _439  and  _440
REMARK  192  A    between atoms: _439  and  _442
REMARK  193  A    between atoms: _442  and  _443
REMARK  194  A    between atoms: _446  and  _448
REMARK  195  A    between atoms: _448  and  _449
REMARK  196  A    between atoms: _448  and  _451
REMARK  197  A    between atoms: _451  and  _452
REMARK  198  A    between atoms: _454  and  _456
REMARK  199  A    between atoms: _456  and  _457
REMARK  200  A    between atoms: _460  and  _462
REMARK  201  A    between atoms: _462  and  _463
REMARK  202  A    between atoms: _462  and  _465
REMARK  203  A    between atoms: _465  and  _466
REMARK  204  A    between atoms: _472  and  _474
REMARK  205  A    between atoms: _474  and  _475
REMARK  206  A    between atoms: _474  and  _477
REMARK  207  A    between atoms: _477  and  _478
REMARK  208  A    between atoms: _481  and  _483
REMARK  209  A    between atoms: _483  and  _484
REMARK  210  A    between atoms: _483  and  _486
REMARK  211  A    between atoms: _486  and  _487
REMARK  212  A    between atoms: _492  and  _494
REMARK  213  A    between atoms: _494  and  _495
REMARK  214  A    between atoms: _494  and  _497
REMARK  215  A    between atoms: _497  and  _498
REMARK  216  A    between atoms: _504  and  _506
REMARK  217  A    between atoms: _506  and  _507
REMARK  218  A    between atoms: _506  and  _509
REMARK  219  A    between atoms: _509  and  _510
REMARK  220  A    between atoms: _514  and  _515
REMARK                            x       y       z     vdW  Elec       q    Type
REMARK                         _______ _______ _______ _____ _____    ______ ____
ROOT
ATOM      1  C   ALA A   2      12.389  39.768 -30.842  0.00  0.00    +0.241 C 
ATOM      2  N   MET A   3      13.437  40.570 -30.655  0.00  0.00    -0.298 N 
ATOM      3  H   MET A   3      13.300  41.434 -30.092  0.00  0.00    +0.150 HD
ATOM      4  O   ALA A   2      12.450  38.690 -31.481  0.00  0.00    -0.273 OA
ENDROOT
BRANCH   1   5
ATOM      5  CA  ALA A   2      11.061  40.300 -30.265  0.00  0.00    +0.149 C 
ATOM      6  CB  ALA A   2      10.487  41.376 -31.180  0.00  0.00    +0.031 C 
BRANCH   5   9
ATOM      7  C   GLY A   1      11.035  40.037 -27.838  0.00  0.00    +0.240 C 
ATOM      8  O   GLY A   1      10.638  38.856 -27.920  0.00  0.00    -0.274 OA
ATOM      9  N   ALA A   2      11.186  40.823 -28.900  0.00  0.00    -0.297 N 
ATOM     10  H   ALA A   2      11.398  41.832 -28.760  0.00  0.00    +0.150 HD
BRANCH   7  11
ATOM     11  CA  GLY A   1      11.347  40.654 -26.482  0.00  0.00    +0.169 C 
BRANCH  11  12
ATOM     12  N   GLY A   1      10.940  39.735 -25.433  0.00  0.00    -0.236 NA
ATOM     13  H   GLY A   1      11.369  38.788 -25.415  0.00  0.00    +0.142 HD
ENDBRANCH  11  12
ENDBRANCH   7  11
ENDBRANCH   5   9
ENDBRANCH   1   5
BRANCH   2  14
ATOM     14  CA  MET A   3      14.761  40.304 -31.195  0.00  0.00    +0.138 C 
BRANCH  14  15
ATOM     15  C   MET A   3      15.672  39.878 -30.073  0.00  0.00    +0.227 C 
ATOM     16  O   MET A   3      15.488  40.301 -28.925  0.00  0.00    -0.286 OA
ENDBRANCH  14  15
BRANCH  14  17
ATOM     17  CB  MET A   3      15.339  41.582 -31.817  0.00  0.00    +0.039 C 
BRANCH  17  18
ATOM     18  CG  MET A   3      14.536  42.083 -32.993  0.00  0.00    +0.060 C 
BRANCH  18  19
ATOM     19  SD  MET A   3      15.170  43.643 -33.659  0.00  0.00    -0.139 S 
ATOM     20  CE  MET A   3      16.685  43.085 -34.429  0.00  0.00    +0.069 C 
ENDBRANCH  18  19
ENDBRANCH  17  18
ENDBRANCH  14  17
ENDBRANCH   2  14
TORSDOF 9
REMARK  Name = ../refined-set-2016/4ynb/4ynb_pocket.pdb
REMARK  220 active torsions:
REMARK  status: ('A' for Active; 'I' for Inactive)
REMARK    1  A    between atoms: _1  and  _3
REMARK    2  A    between atoms: _3  and  _4
REMARK    3  A    between atoms: _6  and  _8
REMARK    4  A    between atoms: _8  and  _9
REMARK    5  A    between atoms: _12  and  _14
REMARK    6  A    between atoms: _14  and  _15
REMARK    7  A    between atoms: _14  and  _17
REMARK    8  A    between atoms: _17  and  _18
REMARK    9  A    between atoms: _18  and  _19
REMARK   10  A    between atoms: _21  and  _23
REMARK   11  A    between atoms: _23  and  _24
REMARK   12  A    between atoms: _23  and  _26
REMARK   13  A    between atoms: _26  and  _27
REMARK   14  A    between atoms: _27  and  _28
REMARK   15  A    between atoms: _31  and  _33
REMARK   16  A    between atoms: _33  and  _34
REMARK   17  A    between atoms: _33  and  _36
REMARK   18  A    between atoms: _36  and  _37
REMARK   19  A    between atoms: _37  and  _38
REMARK   20  A    between atoms: _41  and  _43
REMARK   21  A    between atoms: _43  and  _44
REMARK   22  A    between atoms: _43  and  _46
REMARK   23  A    between atoms: _46  and  _47
REMARK   24  A    between atoms: _49  and  _51
REMARK   25  A    between atoms: _51  and  _52
REMARK   26  A    between atoms: _51  and  _54
REMARK   27  A    between atoms: _54  and  _55
REMARK   28  A    between atoms: _55  and  _56
REMARK   29  A    between atoms: _56  and  _57
REMARK   30  A    between atoms: _57  and  _58
REMARK   31  A    between atoms: _62  and  _64
REMARK   32  A    between atoms: _64  and  _65
REMARK   33  A    between atoms: _64  and  _67
REMARK   34  A    between atoms: _67  and  _68
REMARK   35  A    between atoms: _71  and  _73
REMARK   36  A    between atoms: _73  and  _74
REMARK   37  A    between atoms: _76  and  _78
REMARK   38  A    between atoms: _78  and  _79
REMARK   39  A    between atoms: _78  and  _81
REMARK   40  A    between atoms: _81  and  _82
REMARK   41  A    between atoms: _88  and  _90
REMARK   42  A    between atoms: _90  and  _91
REMARK   43  A    between atoms: _93  and  _95
REMARK   44  A    between atoms: _95  and  _96
REMARK   45  A    between atoms: _95  and  _98
REMARK   46  A    between atoms: _101  and  _103
REMARK   47  A    between atoms: _103  and  _104
REMARK   48  A    between atoms: _107  and  _109
REMARK   49  A    between atoms: _109  and  _110
REMARK   50  A    between atoms: _112  and  _114
REMARK   51  A    between atoms: _114  and  _115
REMARK   52  A    between atoms: _114  and  _117
REMARK   53  A    between atoms: _117  and  _118
REMARK   54  A    between atoms: _120  and  _122
REMARK   55  A    between atoms: _122  and  _123
REMARK   56  A    between atoms: _122  and  _125
REMARK   57  A    between atoms: _125  and  _126
REMARK   58  A    between atoms: _129  and  _131
REMARK   59  A    between atoms: _131  and  _132
REMARK   60  A    between atoms: _131  and  _134
REMARK   61  A    between atoms: _134  and  _135
REMARK   62  A    between atoms: _140  and  _142
REMARK   63  A    between atoms: _142  and  _143
REMARK   64  A    between atoms: _146  and  _148
REMARK   65  A    between atoms: _148  and  _149
REMARK   66  A    between atoms: _148  and  _151
REMARK   67  A    between atoms: _151  and  _152
REMARK   68  A    between atoms: _154  and  _156
REMARK   69  A    between atoms: _156  and  _157
REMARK   70  A    between atoms: _159  and  _161
REMARK   71  A    between atoms: _161  and  _162
REMARK   72  A    between atoms: _161  and  _164
REMARK   73  A    between atoms: _164  and  _165
REMARK   74  A    between atoms: _168  and  _170
REMARK   75  A    between atoms: _170  and  _171
REMARK   76  A    between atoms: _170  and  _173
REMARK   77  A    between atoms: _173  and  _174
REMARK   78  A    between atoms: _174  and  _175
REMARK   79  A    between atoms: _180  and  _182
REMARK   80  A    between atoms: _182  and  _183
REMARK   81  A    between atoms: _182  and  _185
REMARK   82  A    between atoms: _185  and  _186
REMARK   83  A    between atoms: _192  and  _194
REMARK   84  A    between atoms: _194  and  _195
REMARK   85  A    between atoms: _194  and  _197
REMARK   86  A    between atoms: _200  and  _202
REMARK   87  A    between atoms: _202  and  _203
REMARK   88  A    between atoms: _202  and  _205
REMARK   89  A    between atoms: _205  and  _206
REMARK   90  A    between atoms: _211  and  _213
REMARK   91  A    between atoms: _213  and  _214
REMARK   92  A    between atoms: _213  and  _216
REMARK   93  A    between atoms: _216  and  _217
REMARK   94  A    between atoms: _219  and  _221
REMARK   95  A    between atoms: _221  and  _222
REMARK   96  A    between atoms: _221  and  _224
REMARK   97  A    between atoms: _224  and  _225
REMARK   98  A    between atoms: _225  and  _226
REMARK   99  A    between atoms: _226  and  _227
REMARK  100  A    between atoms: _227  and  _228
REMARK  101  A    between atoms: _232  and  _234
REMARK  102  A    between atoms: _234  and  _235
REMARK  103  A    between atoms: _234  and  _237
REMARK  104  A    between atoms: _237  and  _238
REMARK  105  A    between atoms: _241  and  _243
REMARK  106  A    between atoms: _243  and  _244
REMARK  107  A    between atoms: _247  and  _249
REMARK  108  A    between atoms: _249  and  _250
REMARK  109  A    between atoms: _249  and  _252
REMARK  110  A    between atoms: _255  and  _257
REMARK  111  A    between atoms: _257  and  _258
REMARK  112  A    between atoms: _257  and  _260
REMARK  113  A    between atoms: _260  and  _261
REMARK  114  A    between atoms: _261  and  _262
REMARK  115  A    between atoms: _265  and  _267
REMARK  116  A    between atoms: _267  and  _268
REMARK  117  A    between atoms: _267  and  _270
REMARK  118  A    between atoms: _270  and  _271
REMARK  119  A    between atoms: _271  and  _272
REMARK  120  A    between atoms: _274  and  _276
REMARK  121  A    between atoms: _276  and  _277
REMARK  122  A    between atoms: _276  and  _279
REMARK  123  A    between atoms: _279  and  _280
REMARK  124  A    between atoms: _280  and  _281
REMARK  125  A    between atoms: _284  and  _286
REMARK  126  A    between atoms: _286  and  _287
REMARK  127  A    between atoms: _289  and  _291
REMARK  128  A    between atoms: _291  and  _292
REMARK  129  A    between atoms: _291  and  _294
REMARK  130  A    between atoms: _294  and  _295
REMARK  131  A    between atoms: _295  and  _296
REMARK  132  A    between atoms: _296  and  _297
REMARK  133  A    between atoms: _306  and  _308
REMARK  134  A    between atoms: _308  and  _309
REMARK  135  A    between atoms: _308  and  _311
REMARK  136  A    between atoms: _311  and  _312
REMARK  137  A    between atoms: _314  and  _316
REMARK  138  A    between atoms: _316  and  _317
REMARK  139  A    between atoms: _316  and  _319
REMARK  140  A    between atoms: _319  and  _320
REMARK  141  A    between atoms: _323  and  _325
REMARK  142  A    between atoms: _325  and  _326
REMARK  143  A    between atoms: _325  and  _328
REMARK  144  A    between atoms: _328  and  _329
REMARK  145  A    between atoms: _331  and  _333
REMARK  146  A    between atoms: _333  and  _334
REMARK  147  A    between atoms: _333  and  _336
REMARK  148  A    between atoms: _336  and  _337
REMARK  149  A    between atoms: _340  and  _342
REMARK  150  A    between atoms: _342  and  _343
REMARK  151  A    between atoms: _342  and  _345
REMARK  152  A    between atoms: _345  and  _346
REMARK  153  A    between atoms: _351  and  _353
REMARK  154  A    between atoms: _353  and  _354
REMARK  155  A    between atoms: _357  and  _359
REMARK  156  A    between atoms: _359  and  _360
REMARK  157  A    between atoms: _359  and  _362
REMARK  158  A    between atoms: _362  and  _363
REMARK  159  A    between atoms: _366  and  _368
REMARK  160  A    between atoms: _368  and  _369
REMARK  161  A    between atoms: _368  and  _371
REMARK  162  A    between atoms: _371  and  _372
REMARK  163  A    between atoms: _372  and  _373
REMARK  164  A    between atoms: _373  and  _374
REMARK  165  A    between atoms: _374  and  _375
REMARK  166  A    between atoms: _379  and  _381
REMARK  167  A    between atoms: _381  and  _382
REMARK  168  A    between atoms: _385  and  _387
REMARK  169  A    between atoms: _387  and  _388
REMARK  170  A    between atoms: _390  and  _392
REMARK  171  A    between atoms: _392  and  _393
REMARK  172  A    between atoms: _392  and  _395
REMARK  173  A    between atoms: _395  and  _396
REMARK  174  A    between atoms: _398  and  _400
REMARK  175  A    between atoms: _400  and  _401
REMARK  176  A    between atoms: _400  and  _403
REMARK  177  A    between atoms: _403  and  _404
REMARK  178  A    between atoms: _410  and  _412
REMARK  179  A    between atoms: _412  and  _413
REMARK  180  A    between atoms: _412  and  _415
REMARK  181  A    between atoms: _415  and  _416
REMARK  182  A    between atoms: _419  and  _421
REMARK  183  A    between atoms: _421  and  _422
REMARK  184  A    between atoms: _421  and  _424
REMARK  185  A    between atoms: _424  and  _425
REMARK  186  A    between atoms: _428  and  _430
REMARK  187  A    between atoms: _430  and  _431
REMARK  188  A    between atoms: _430  and  _433
REMARK  189  A    between atoms: _433  and  _434
REMARK  190  A    between atoms: _437  and  _439
REMARK  191  A    between atoms: _439  and  _440
REMARK  192  A    between atoms: _439  and  _442
REMARK  193  A    between atoms: _442  and  _443
REMARK  194  A    between atoms: _446  and  _448
REMARK  195  A    between atoms: _448  and  _449
REMARK  196  A    between atoms: _448  and  _451
REMARK  197  A    between atoms: _451  and  _452
REMARK  198  A    between atoms: _454  and  _456
REMARK  199  A    between atoms: _456  and  _457
REMARK  200  A    between atoms: _460  and  _462
REMARK  201  A    between atoms: _462  and  _463
REMARK  202  A    between atoms: _462  and  _465
REMARK  203  A    between atoms: _465  and  _466
REMARK  204  A    between atoms: _472  and  _474
REMARK  205  A    between atoms: _474  and  _475
REMARK  206  A    between atoms: _474  and  _477
REMARK  207  A    between atoms: _477  and  _478
REMARK  208  A    between atoms: _481  and  _483
REMARK  209  A    between atoms: _483  and  _484
REMARK  210  A    between atoms: _483  and  _486
REMARK  211  A    between atoms: _486  and  _487
REMARK  212  A    between atoms: _492  and  _494
REMARK  213  A    between atoms: _494  and  _495
REMARK  214  A    between atoms: _494  and  _497
REMARK  215  A    between atoms: _497  and  _498
REMARK  216  A    between atoms: _504  and  _506
REMARK  217  A    between atoms: _506  and  _507
REMARK  218  A    between atoms: _506  and  _509
REMARK  219  A    between atoms: _509  and  _510
REMARK  220  A    between atoms: _514  and  _515
REMARK                            x       y       z     vdW  Elec       q    Type
REMARK                         _______ _______ _______ _____ _____    ______ ____
ROOT
ATOM      1  C   GLU A   1      18.147  42.840 -27.839  0.00  0.00    +0.238 C 
ATOM      2  O   GLU A   1      18.651  43.523 -26.965  0.00  0.00    -0.274 OA
ATOM      3  N   GLU A   2      16.841  42.580 -27.881  0.00  0.00    -0.298 N 
ATOM      4  H   GLU A   2      16.456  42.006 -28.658  0.00  0.00    +0.150 HD
ENDROOT
BRANCH   1   5
ATOM      5  CA  GLU A   1      19.035  42.246 -28.901  0.00  0.00    +0.145 C 
BRANCH   5   6
ATOM      6  N   GLU A   1      18.516  40.997 -29.457  0.00  0.00    -0.238 NA
ATOM      7  H   GLU A   1      18.319  40.938 -30.477  0.00  0.00    +0.142 HD
ENDBRANCH   5   6
BRANCH   5   8
ATOM      8  CB  GLU A   1      19.269  43.300 -30.001  0.00  0.00    +0.038 C 
BRANCH   8   9
ATOM      9  CG  GLU A   1      20.405  42.960 -30.961  0.00  0.00    +0.116 C 
BRANCH   9  10
ATOM     10  CD  GLU A   1      19.991  42.119 -32.166  0.00  0.00    +0.365 C 
ATOM     11  OE2 GLU A   1      18.990  41.366 -32.122  0.00  0.00    -0.246 OA
ATOM     12  OE1 GLU A   1      20.701  42.205 -33.185  0.00  0.00    -0.246 OA
ENDBRANCH   9  10
ENDBRANCH   8   9
ENDBRANCH   5   8
ENDBRANCH   1   5
BRANCH   3  13
ATOM     13  CA  GLU A   2      15.933  43.097 -26.836  0.00  0.00    +0.137 C 
BRANCH  13  14
ATOM     14  C   GLU A   2      15.981  42.350 -25.505  0.00  0.00    +0.227 C 
ATOM     15  O   GLU A   2      15.665  42.925 -24.437  0.00  0.00    -0.286 OA
ENDBRANCH  13  14
BRANCH  13  16
ATOM     16  CB  GLU A   2      14.494  43.227 -27.380  0.00  0.00    +0.039 C 
BRANCH  16  17
ATOM     17  CG  GLU A   2      14.424  44.307 -28.465  0.00  0.00    +0.116 C 
BRANCH  17  18
ATOM     18  CD  GLU A   2      13.154  44.299 -29.278  0.00  0.00    +0.365 C 
ATOM     19  OE2 GLU A   2      12.645  43.203 -29.544  0.00  0.00    -0.246 OA
ATOM     20  OE1 GLU A   2      12.671  45.406 -29.666  0.00  0.00    -0.246 OA
ENDBRANCH  17  18
ENDBRANCH  16  17
ENDBRANCH  13  16
ENDBRANCH   3  13
TORSDOF 10
REMARK  Name = ../refined-set-2016/4ynb/4ynb_pocket.pdb
REMARK  220 active torsions:
REMARK  status: ('A' for Active; 'I' for Inactive)
REMARK    1  A    between atoms: _1  and  _3
REMARK    2  A    between atoms: _3  and  _4
REMARK    3  A    between atoms: _6  and  _8
REMARK    4  A    between atoms: _8  and  _9
REMARK    5  A    between atoms: _12  and  _14
REMARK    6  A    between atoms: _14  and  _15
REMARK    7  A    between atoms: _14  and  _17
REMARK    8  A    between atoms: _17  and  _18
REMARK    9  A    between atoms: _18  and  _19
REMARK   10  A    between atoms: _21  and  _23
REMARK   11  A    between atoms: _23  and  _24
REMARK   12  A    between atoms: _23  and  _26
REMARK   13  A    between atoms: _26  and  _27
REMARK   14  A    between atoms: _27  and  _28
REMARK   15  A    between atoms: _31  and  _33
REMARK   16  A    between atoms: _33  and  _34
REMARK   17  A    between atoms: _33  and  _36
REMARK   18  A    between atoms: _36  and  _37
REMARK   19  A    between atoms: _37  and  _38
REMARK   20  A    between atoms: _41  and  _43
REMARK   21  A    between atoms: _43  and  _44
REMARK   22  A    between atoms: _43  and  _46
REMARK   23  A    between atoms: _46  and  _47
REMARK   24  A    between atoms: _49  and  _51
REMARK   25  A    between atoms: _51  and  _52
REMARK   26  A    between atoms: _51  and  _54
REMARK   27  A    between atoms: _54  and  _55
REMARK   28  A    between atoms: _55  and  _56
REMARK   29  A    between atoms: _56  and  _57
REMARK   30  A    between atoms: _57  and  _58
REMARK   31  A    between atoms: _62  and  _64
REMARK   32  A    between atoms: _64  and  _65
REMARK   33  A    between atoms: _64  and  _67
REMARK   34  A    between atoms: _67  and  _68
REMARK   35  A    between atoms: _71  and  _73
REMARK   36  A    between atoms: _73  and  _74
REMARK   37  A    between atoms: _76  and  _78
REMARK   38  A    between atoms: _78  and  _79
REMARK   39  A    between atoms: _78  and  _81
REMARK   40  A    between atoms: _81  and  _82
REMARK   41  A    between atoms: _88  and  _90
REMARK   42  A    between atoms: _90  and  _91
REMARK   43  A    between atoms: _93  and  _95
REMARK   44  A    between atoms: _95  and  _96
REMARK   45  A    between atoms: _95  and  _98
REMARK   46  A    between atoms: _101  and  _103
REMARK   47  A    between atoms: _103  and  _104
REMARK   48  A    between atoms: _107  and  _109
REMARK   49  A    between atoms: _109  and  _110
REMARK   50  A    between atoms: _112  and  _114
REMARK   51  A    between atoms: _114  and  _115
REMARK   52  A    between atoms: _114  and  _117
REMARK   53  A    between atoms: _117  and  _118
REMARK   54  A    between atoms: _120  and  _122
REMARK   55  A    between atoms: _122  and  _123
REMARK   56  A    between atoms: _122  and  _125
REMARK   57  A    between atoms: _125  and  _126
REMARK   58  A    between atoms: _129  and  _131
REMARK   59  A    between atoms: _131  and  _132
REMARK   60  A    between atoms: _131  and  _134
REMARK   61  A    between atoms: _134  and  _135
REMARK   62  A    between atoms: _140  and  _142
REMARK   63  A    between atoms: _142  and  _143
REMARK   64  A    between atoms: _146  and  _148
REMARK   65  A    between atoms: _148  and  _149
REMARK   66  A    between atoms: _148  and  _151
REMARK   67  A    between atoms: _151  and  _152
REMARK   68  A    between atoms: _154  and  _156
REMARK   69  A    between atoms: _156  and  _157
REMARK   70  A    between atoms: _159  and  _161
REMARK   71  A    between atoms: _161  and  _162
REMARK   72  A    between atoms: _161  and  _164
REMARK   73  A    between atoms: _164  and  _165
REMARK   74  A    between atoms: _168  and  _170
REMARK   75  A    between atoms: _170  and  _171
REMARK   76  A    between atoms: _170  and  _173
REMARK   77  A    between atoms: _173  and  _174
REMARK   78  A    between atoms: _174  and  _175
REMARK   79  A    between atoms: _180  and  _182
REMARK   80  A    between atoms: _182  and  _183
REMARK   81  A    between atoms: _182  and  _185
REMARK   82  A    between atoms: _185  and  _186
REMARK   83  A    between atoms: _192  and  _194
REMARK   84  A    between atoms: _194  and  _195
REMARK   85  A    between atoms: _194  and  _197
REMARK   86  A    between atoms: _200  and  _202
REMARK   87  A    between atoms: _202  and  _203
REMARK   88  A    between atoms: _202  and  _205
REMARK   89  A    between atoms: _205  and  _206
REMARK   90  A    between atoms: _211  and  _213
REMARK   91  A    between atoms: _213  and  _214
REMARK   92  A    between atoms: _213  and  _216
REMARK   93  A    between atoms: _216  and  _217
REMARK   94  A    between atoms: _219  and  _221
REMARK   95  A    between atoms: _221  and  _222
REMARK   96  A    between atoms: _221  and  _224
REMARK   97  A    between atoms: _224  and  _225
REMARK   98  A    between atoms: _225  and  _226
REMARK   99  A    between atoms: _226  and  _227
REMARK  100  A    between atoms: _227  and  _228
REMARK  101  A    between atoms: _232  and  _234
REMARK  102  A    between atoms: _234  and  _235
REMARK  103  A    between atoms: _234  and  _237
REMARK  104  A    between atoms: _237  and  _238
REMARK  105  A    between atoms: _241  and  _243
REMARK  106  A    between atoms: _243  and  _244
REMARK  107  A    between atoms: _247  and  _249
REMARK  108  A    between atoms: _249  and  _250
REMARK  109  A    between atoms: _249  and  _252
REMARK  110  A    between atoms: _255  and  _257
REMARK  111  A    between atoms: _257  and  _258
REMARK  112  A    between atoms: _257  and  _260
REMARK  113  A    between atoms: _260  and  _261
REMARK  114  A    between atoms: _261  and  _262
REMARK  115  A    between atoms: _265  and  _267
REMARK  116  A    between atoms: _267  and  _268
REMARK  117  A    between atoms: _267  and  _270
REMARK  118  A    between atoms: _270  and  _271
REMARK  119  A    between atoms: _271  and  _272
REMARK  120  A    between atoms: _274  and  _276
REMARK  121  A    between atoms: _276  and  _277
REMARK  122  A    between atoms: _276  and  _279
REMARK  123  A    between atoms: _279  and  _280
REMARK  124  A    between atoms: _280  and  _281
REMARK  125  A    between atoms: _284  and  _286
REMARK  126  A    between atoms: _286  and  _287
REMARK  127  A    between atoms: _289  and  _291
REMARK  128  A    between atoms: _291  and  _292
REMARK  129  A    between atoms: _291  and  _294
REMARK  130  A    between atoms: _294  and  _295
REMARK  131  A    between atoms: _295  and  _296
REMARK  132  A    between atoms: _296  and  _297
REMARK  133  A    between atoms: _306  and  _308
REMARK  134  A    between atoms: _308  and  _309
REMARK  135  A    between atoms: _308  and  _311
REMARK  136  A    between atoms: _311  and  _312
REMARK  137  A    between atoms: _314  and  _316
REMARK  138  A    between atoms: _316  and  _317
REMARK  139  A    between atoms: _316  and  _319
REMARK  140  A    between atoms: _319  and  _320
REMARK  141  A    between atoms: _323  and  _325
REMARK  142  A    between atoms: _325  and  _326
REMARK  143  A    between atoms: _325  and  _328
REMARK  144  A    between atoms: _328  and  _329
REMARK  145  A    between atoms: _331  and  _333
REMARK  146  A    between atoms: _333  and  _334
REMARK  147  A    between atoms: _333  and  _336
REMARK  148  A    between atoms: _336  and  _337
REMARK  149  A    between atoms: _340  and  _342
REMARK  150  A    between atoms: _342  and  _343
REMARK  151  A    between atoms: _342  and  _345
REMARK  152  A    between atoms: _345  and  _346
REMARK  153  A    between atoms: _351  and  _353
REMARK  154  A    between atoms: _353  and  _354
REMARK  155  A    between atoms: _357  and  _359
REMARK  156  A    between atoms: _359  and  _360
REMARK  157  A    between atoms: _359  and  _362
REMARK  158  A    between atoms: _362  and  _363
REMARK  159  A    between atoms: _366  and  _368
REMARK  160  A    between atoms: _368  and  _369
REMARK  161  A    between atoms: _368  and  _371
REMARK  162  A    between atoms: _371  and  _372
REMARK  163  A    between atoms: _372  and  _373
REMARK  164  A    between atoms: _373  and  _374
REMARK  165  A    between atoms: _374  and  _375
REMARK  166  A    between atoms: _379  and  _381
REMARK  167  A    between atoms: _381  and  _382
REMARK  168  A    between atoms: _385  and  _387
REMARK  169  A    between atoms: _387  and  _388
REMARK  170  A    between atoms: _390  and  _392
REMARK  171  A    between atoms: _392  and  _393
REMARK  172  A    between atoms: _392  and  _395
REMARK  173  A    between atoms: _395  and  _396
REMARK  174  A    between atoms: _398  and  _400
REMARK  175  A    between atoms: _400  and  _401
REMARK  176  A    between atoms: _400  and  _403
REMARK  177  A    between atoms: _403  and  _404
REMARK  178  A    between atoms: _410  and  _412
REMARK  179  A    between atoms: _412  and  _413
REMARK  180  A    between atoms: _412  and  _415
REMARK  181  A    between atoms: _415  and  _416
REMARK  182  A    between atoms: _419  and  _421
REMARK  183  A    between atoms: _421  and  _422
REMARK  184  A    between atoms: _421  and  _424
REMARK  185  A    between atoms: _424  and  _425
REMARK  186  A    between atoms: _428  and  _430
REMARK  187  A    between atoms: _430  and  _431
REMARK  188  A    between atoms: _430  and  _433
REMARK  189  A    between atoms: _433  and  _434
REMARK  190  A    between atoms: _437  and  _439
REMARK  191  A    between atoms: _439  and  _440
REMARK  192  A    between atoms: _439  and  _442
REMARK  193  A    between atoms: _442  and  _443
REMARK  194  A    between atoms: _446  and  _448
REMARK  195  A    between atoms: _448  and  _449
REMARK  196  A    between atoms: _448  and  _451
REMARK  197  A    between atoms: _451  and  _452
REMARK  198  A    between atoms: _454  and  _456
REMARK  199  A    between atoms: _456  and  _457
REMARK  200  A    between atoms: _460  and  _462
REMARK  201  A    between atoms: _462  and  _463
REMARK  202  A    between atoms: _462  and  _465
REMARK  203  A    between atoms: _465  and  _466
REMARK  204  A    between atoms: _472  and  _474
REMARK  205  A    between atoms: _474  and  _475
REMARK  206  A    between atoms: _474  and  _477
REMARK  207  A    between atoms: _477  and  _478
REMARK  208  A    between atoms: _481  and  _483
REMARK  209  A    between atoms: _483  and  _484
REMARK  210  A    between atoms: _483  and  _486
REMARK  211  A    between atoms: _486  and  _487
REMARK  212  A    between atoms: _492  and  _494
REMARK  213  A    between atoms: _494  and  _495
REMARK  214  A    between atoms: _494  and  _497
REMARK  215  A    between atoms: _497  and  _498
REMARK  216  A    between atoms: _504  and  _506
REMARK  217  A    between atoms: _506  and  _507
REMARK  218  A    between atoms: _506  and  _509
REMARK  219  A    between atoms: _509  and  _510
REMARK  220  A    between atoms: _514  and  _515
REMARK                            x       y       z     vdW  Elec       q    Type
REMARK                         _______ _______ _______ _____ _____    ______ ____
ROOT
ATOM      1  CA  LYS A   2      11.475  36.600 -33.428  0.00  0.00    +0.149 C 
ENDROOT
BRANCH   1   3
ATOM      2  C   SER A   1      10.360  35.415 -31.563  0.00  0.00    +0.241 C 
ATOM      3  N   LYS A   2      11.219  36.336 -32.025  0.00  0.00    -0.297 N 
ATOM      4  H   LYS A   2      11.740  36.903 -31.325  0.00  0.00    +0.150 HD
ATOM      5  O   SER A   1       9.994  34.405 -32.202  0.00  0.00    -0.274 OA
BRANCH   2   6
ATOM      6  CA  SER A   1       9.865  35.644 -30.141  0.00  0.00    +0.174 C 
BRANCH   6   7
ATOM      7  N   SER A   1      10.811  36.344 -29.275  0.00  0.00    -0.236 NA
ATOM      8  H   SER A   1      10.652  37.351 -29.068  0.00  0.00    +0.142 HD
ENDBRANCH   6   7
BRANCH   6   9
ATOM      9  CB  SER A   1       8.560  36.450 -30.175  0.00  0.00    +0.163 C 
BRANCH   9  10
ATOM     10  OG  SER A   1       8.760  37.723 -30.752  0.00  0.00    -0.380 OA
ATOM     11  H   SER A   1       9.089  37.616 -31.679  0.00  0.00    +0.211 HD
ENDBRANCH   9  10
ENDBRANCH   6   9
ENDBRANCH   2   6
ENDBRANCH   1   3
BRANCH   1  12
ATOM     12  C   LYS A   2      10.425  37.609 -33.921  0.00  0.00    +0.241 C 
ATOM     13  O   LYS A   2       9.412  37.906 -33.258  0.00  0.00    -0.273 OA
ATOM     14  N   ILE A   3      10.751  38.252 -35.021  0.00  0.00    -0.297 N 
ATOM     15  H   ILE A   3      11.555  37.914 -35.587  0.00  0.00    +0.150 HD
BRANCH  14  16
ATOM     16  CA  ILE A   3      10.024  39.409 -35.458  0.00  0.00    +0.149 C 
BRANCH  16  17
ATOM     17  C   ILE A   3       8.615  39.119 -35.996  0.00  0.00    +0.241 C 
ATOM     18  N   GLY A   4       7.687  40.010 -35.662  0.00  0.00    -0.296 N 
ATOM     19  H   GLY A   4       7.899  40.724 -34.937  0.00  0.00    +0.150 HD
ATOM     20  O   ILE A   3       8.380  38.153 -36.717  0.00  0.00    -0.273 OA
BRANCH  18  21
ATOM     21  CA  GLY A   4       6.393  39.999 -36.291  0.00  0.00    +0.163 C 
BRANCH  21  22
ATOM     22  C   GLY A   4       5.301  39.238 -35.582  0.00  0.00    +0.229 C 
ATOM     23  O   GLY A   4       5.510  38.622 -34.519  0.00  0.00    -0.286 OA
ENDBRANCH  21  22
ENDBRANCH  18  21
ENDBRANCH  16  17
BRANCH  16  24
ATOM     24  CB  ILE A   3      10.850  40.176 -36.516  0.00  0.00    +0.027 C 
ATOM     25  CG2 ILE A   3      10.022  41.292 -37.135  0.00  0.00    +0.002 C 
BRANCH  24  26
ATOM     26  CG1 ILE A   3      12.098  40.801 -35.856  0.00  0.00    +0.002 C 
ATOM     27  CD1 ILE A   3      13.253  41.071 -36.812  0.00  0.00    +0.000 C 
ENDBRANCH  24  26
ENDBRANCH  16  24
ENDBRANCH  14  16
ENDBRANCH   1  12
BRANCH   1  28
ATOM     28  CB  LYS A   2      11.608  35.343 -34.305  0.00  0.00    +0.029 C 
BRANCH  28  29
ATOM     29  CG  LYS A   2      12.770  34.429 -33.895  0.00  0.00    +0.000 C 
BRANCH  29  30
ATOM     30  CD  LYS A   2      12.736  33.048 -34.548  0.00  0.00    -0.024 C 
BRANCH  30  31
ATOM     31  CE  LYS A   2      11.830  32.046 -33.813  0.00  0.00    -0.086 C 
BRANCH  31  32
ATOM     32  NZ  LYS A   2      11.587  30.689 -34.463  0.00  0.00    +0.380 N 
ATOM     33  HZ1 LYS A   2      10.960  30.123 -33.856  0.00  0.00    -0.089 HD
ATOM     34  HZ2 LYS A   2      12.495  30.196 -34.582  0.00  0.00    -0.089 HD
ATOM     35  HZ3 LYS A   2      11.141  30.826 -35.392  0.00  0.00    -0.089 HD
ENDBRANCH  31  32
ENDBRANCH  30  31
ENDBRANCH  29  30
ENDBRANCH  28  29
ENDBRANCH   1  28
TORSDOF 17
REMARK  Name = ../refined-set-2016/4ynb/4ynb_pocket.pdb
REMARK  220 active torsions:
REMARK  status: ('A' for Active; 'I' for Inactive)
REMARK    1  A    between atoms: _1  and  _3
REMARK    2  A    between atoms: _3  and  _4
REMARK    3  A    between atoms: _6  and  _8
REMARK    4  A    between atoms: _8  and  _9
REMARK    5  A    between atoms: _12  and  _14
REMARK    6  A    between atoms: _14  and  _15
REMARK    7  A    between atoms: _14  and  _17
REMARK    8  A    between atoms: _17  and  _18
REMARK    9  A    between atoms: _18  and  _19
REMARK   10  A    between atoms: _21  and  _23
REMARK   11  A    between atoms: _23  and  _24
REMARK   12  A    between atoms: _23  and  _26
REMARK   13  A    between atoms: _26  and  _27
REMARK   14  A    between atoms: _27  and  _28
REMARK   15  A    between atoms: _31  and  _33
REMARK   16  A    between atoms: _33  and  _34
REMARK   17  A    between atoms: _33  and  _36
REMARK   18  A    between atoms: _36  and  _37
REMARK   19  A    between atoms: _37  and  _38
REMARK   20  A    between atoms: _41  and  _43
REMARK   21  A    between atoms: _43  and  _44
REMARK   22  A    between atoms: _43  and  _46
REMARK   23  A    between atoms: _46  and  _47
REMARK   24  A    between atoms: _49  and  _51
REMARK   25  A    between atoms: _51  and  _52
REMARK   26  A    between atoms: _51  and  _54
REMARK   27  A    between atoms: _54  and  _55
REMARK   28  A    between atoms: _55  and  _56
REMARK   29  A    between atoms: _56  and  _57
REMARK   30  A    between atoms: _57  and  _58
REMARK   31  A    between atoms: _62  and  _64
REMARK   32  A    between atoms: _64  and  _65
REMARK   33  A    between atoms: _64  and  _67
REMARK   34  A    between atoms: _67  and  _68
REMARK   35  A    between atoms: _71  and  _73
REMARK   36  A    between atoms: _73  and  _74
REMARK   37  A    between atoms: _76  and  _78
REMARK   38  A    between atoms: _78  and  _79
REMARK   39  A    between atoms: _78  and  _81
REMARK   40  A    between atoms: _81  and  _82
REMARK   41  A    between atoms: _88  and  _90
REMARK   42  A    between atoms: _90  and  _91
REMARK   43  A    between atoms: _93  and  _95
REMARK   44  A    between atoms: _95  and  _96
REMARK   45  A    between atoms: _95  and  _98
REMARK   46  A    between atoms: _101  and  _103
REMARK   47  A    between atoms: _103  and  _104
REMARK   48  A    between atoms: _107  and  _109
REMARK   49  A    between atoms: _109  and  _110
REMARK   50  A    between atoms: _112  and  _114
REMARK   51  A    between atoms: _114  and  _115
REMARK   52  A    between atoms: _114  and  _117
REMARK   53  A    between atoms: _117  and  _118
REMARK   54  A    between atoms: _120  and  _122
REMARK   55  A    between atoms: _122  and  _123
REMARK   56  A    between atoms: _122  and  _125
REMARK   57  A    between atoms: _125  and  _126
REMARK   58  A    between atoms: _129  and  _131
REMARK   59  A    between atoms: _131  and  _132
REMARK   60  A    between atoms: _131  and  _134
REMARK   61  A    between atoms: _134  and  _135
REMARK   62  A    between atoms: _140  and  _142
REMARK   63  A    between atoms: _142  and  _143
REMARK   64  A    between atoms: _146  and  _148
REMARK   65  A    between atoms: _148  and  _149
REMARK   66  A    between atoms: _148  and  _151
REMARK   67  A    between atoms: _151  and  _152
REMARK   68  A    between atoms: _154  and  _156
REMARK   69  A    between atoms: _156  and  _157
REMARK   70  A    between atoms: _159  and  _161
REMARK   71  A    between atoms: _161  and  _162
REMARK   72  A    between atoms: _161  and  _164
REMARK   73  A    between atoms: _164  and  _165
REMARK   74  A    between atoms: _168  and  _170
REMARK   75  A    between atoms: _170  and  _171
REMARK   76  A    between atoms: _170  and  _173
REMARK   77  A    between atoms: _173  and  _174
REMARK   78  A    between atoms: _174  and  _175
REMARK   79  A    between atoms: _180  and  _182
REMARK   80  A    between atoms: _182  and  _183
REMARK   81  A    between atoms: _182  and  _185
REMARK   82  A    between atoms: _185  and  _186
REMARK   83  A    between atoms: _192  and  _194
REMARK   84  A    between atoms: _194  and  _195
REMARK   85  A    between atoms: _194  and  _197
REMARK   86  A    between atoms: _200  and  _202
REMARK   87  A    between atoms: _202  and  _203
REMARK   88  A    between atoms: _202  and  _205
REMARK   89  A    between atoms: _205  and  _206
REMARK   90  A    between atoms: _211  and  _213
REMARK   91  A    between atoms: _213  and  _214
REMARK   92  A    between atoms: _213  and  _216
REMARK   93  A    between atoms: _216  and  _217
REMARK   94  A    between atoms: _219  and  _221
REMARK   95  A    between atoms: _221  and  _222
REMARK   96  A    between atoms: _221  and  _224
REMARK   97  A    between atoms: _224  and  _225
REMARK   98  A    between atoms: _225  and  _226
REMARK   99  A    between atoms: _226  and  _227
REMARK  100  A    between atoms: _227  and  _228
REMARK  101  A    between atoms: _232  and  _234
REMARK  102  A    between atoms: _234  and  _235
REMARK  103  A    between atoms: _234  and  _237
REMARK  104  A    between atoms: _237  and  _238
REMARK  105  A    between atoms: _241  and  _243
REMARK  106  A    between atoms: _243  and  _244
REMARK  107  A    between atoms: _247  and  _249
REMARK  108  A    between atoms: _249  and  _250
REMARK  109  A    between atoms: _249  and  _252
REMARK  110  A    between atoms: _255  and  _257
REMARK  111  A    between atoms: _257  and  _258
REMARK  112  A    between atoms: _257  and  _260
REMARK  113  A    between atoms: _260  and  _261
REMARK  114  A    between atoms: _261  and  _262
REMARK  115  A    between atoms: _265  and  _267
REMARK  116  A    between atoms: _267  and  _268
REMARK  117  A    between atoms: _267  and  _270
REMARK  118  A    between atoms: _270  and  _271
REMARK  119  A    between atoms: _271  and  _272
REMARK  120  A    between atoms: _274  and  _276
REMARK  121  A    between atoms: _276  and  _277
REMARK  122  A    between atoms: _276  and  _279
REMARK  123  A    between atoms: _279  and  _280
REMARK  124  A    between atoms: _280  and  _281
REMARK  125  A    between atoms: _284  and  _286
REMARK  126  A    between atoms: _286  and  _287
REMARK  127  A    between atoms: _289  and  _291
REMARK  128  A    between atoms: _291  and  _292
REMARK  129  A    between atoms: _291  and  _294
REMARK  130  A    between atoms: _294  and  _295
REMARK  131  A    between atoms: _295  and  _296
REMARK  132  A    between atoms: _296  and  _297
REMARK  133  A    between atoms: _306  and  _308
REMARK  134  A    between atoms: _308  and  _309
REMARK  135  A    between atoms: _308  and  _311
REMARK  136  A    between atoms: _311  and  _312
REMARK  137  A    between atoms: _314  and  _316
REMARK  138  A    between atoms: _316  and  _317
REMARK  139  A    between atoms: _316  and  _319
REMARK  140  A    between atoms: _319  and  _320
REMARK  141  A    between atoms: _323  and  _325
REMARK  142  A    between atoms: _325  and  _326
REMARK  143  A    between atoms: _325  and  _328
REMARK  144  A    between atoms: _328  and  _329
REMARK  145  A    between atoms: _331  and  _333
REMARK  146  A    between atoms: _333  and  _334
REMARK  147  A    between atoms: _333  and  _336
REMARK  148  A    between atoms: _336  and  _337
REMARK  149  A    between atoms: _340  and  _342
REMARK  150  A    between atoms: _342  and  _343
REMARK  151  A    between atoms: _342  and  _345
REMARK  152  A    between atoms: _345  and  _346
REMARK  153  A    between atoms: _351  and  _353
REMARK  154  A    between atoms: _353  and  _354
REMARK  155  A    between atoms: _357  and  _359
REMARK  156  A    between atoms: _359  and  _360
REMARK  157  A    between atoms: _359  and  _362
REMARK  158  A    between atoms: _362  and  _363
REMARK  159  A    between atoms: _366  and  _368
REMARK  160  A    between atoms: _368  and  _369
REMARK  161  A    between atoms: _368  and  _371
REMARK  162  A    between atoms: _371  and  _372
REMARK  163  A    between atoms: _372  and  _373
REMARK  164  A    between atoms: _373  and  _374
REMARK  165  A    between atoms: _374  and  _375
REMARK  166  A    between atoms: _379  and  _381
REMARK  167  A    between atoms: _381  and  _382
REMARK  168  A    between atoms: _385  and  _387
REMARK  169  A    between atoms: _387  and  _388
REMARK  170  A    between atoms: _390  and  _392
REMARK  171  A    between atoms: _392  and  _393
REMARK  172  A    between atoms: _392  and  _395
REMARK  173  A    between atoms: _395  and  _396
REMARK  174  A    between atoms: _398  and  _400
REMARK  175  A    between atoms: _400  and  _401
REMARK  176  A    between atoms: _400  and  _403
REMARK  177  A    between atoms: _403  and  _404
REMARK  178  A    between atoms: _410  and  _412
REMARK  179  A    between atoms: _412  and  _413
REMARK  180  A    between atoms: _412  and  _415
REMARK  181  A    between atoms: _415  and  _416
REMARK  182  A    between atoms: _419  and  _421
REMARK  183  A    between atoms: _421  and  _422
REMARK  184  A    between atoms: _421  and  _424
REMARK  185  A    between atoms: _424  and  _425
REMARK  186  A    between atoms: _428  and  _430
REMARK  187  A    between atoms: _430  and  _431
REMARK  188  A    between atoms: _430  and  _433
REMARK  189  A    between atoms: _433  and  _434
REMARK  190  A    between atoms: _437  and  _439
REMARK  191  A    between atoms: _439  and  _440
REMARK  192  A    between atoms: _439  and  _442
REMARK  193  A    between atoms: _442  and  _443
REMARK  194  A    between atoms: _446  and  _448
REMARK  195  A    between atoms: _448  and  _449
REMARK  196  A    between atoms: _448  and  _451
REMARK  197  A    between atoms: _451  and  _452
REMARK  198  A    between atoms: _454  and  _456
REMARK  199  A    between atoms: _456  and  _457
REMARK  200  A    between atoms: _460  and  _462
REMARK  201  A    between atoms: _462  and  _463
REMARK  202  A    between atoms: _462  and  _465
REMARK  203  A    between atoms: _465  and  _466
REMARK  204  A    between atoms: _472  and  _474
REMARK  205  A    between atoms: _474  and  _475
REMARK  206  A    between atoms: _474  and  _477
REMARK  207  A    between atoms: _477  and  _478
REMARK  208  A    between atoms: _481  and  _483
REMARK  209  A    between atoms: _483  and  _484
REMARK  210  A    between atoms: _483  and  _486
REMARK  211  A    between atoms: _486  and  _487
REMARK  212  A    between atoms: _492  and  _494
REMARK  213  A    between atoms: _494  and  _495
REMARK  214  A    between atoms: _494  and  _497
REMARK  215  A    between atoms: _497  and  _498
REMARK  216  A    between atoms: _504  and  _506
REMARK  217  A    between atoms: _506  and  _507
REMARK  218  A    between atoms: _506  and  _509
REMARK  219  A    between atoms: _509  and  _510
REMARK  220  A    between atoms: _514  and  _515
REMARK                            x       y       z     vdW  Elec       q    Type
REMARK                         _______ _______ _______ _____ _____    ______ ____
ROOT
ATOM      1  CB  PHE A   1       6.150  42.909 -24.295  0.00  0.00    +0.051 C 
ENDROOT
BRANCH   1   2
ATOM      2  CG  PHE A   1       6.899  42.872 -25.598  0.00  0.00    -0.020 A 
ATOM      3  CD2 PHE A   1       7.630  43.973 -26.010  0.00  0.00    -0.004 A 
ATOM      4  CE2 PHE A   1       8.371  43.942 -27.173  0.00  0.00    -0.000 A 
ATOM      5  CZ  PHE A   1       8.382  42.797 -27.943  0.00  0.00    -0.000 A 
ATOM      6  CE1 PHE A   1       7.677  41.694 -27.521  0.00  0.00    -0.000 A 
ATOM      7  CD1 PHE A   1       6.941  41.742 -26.354  0.00  0.00    -0.004 A 
ENDBRANCH   1   2
BRANCH   1   8
ATOM      8  CA  PHE A   1       7.078  42.789 -23.078  0.00  0.00    +0.137 C 
BRANCH   8   9
ATOM      9  N   PHE A   1       6.341  42.687 -21.849  0.00  0.00    -0.239 NA
ATOM     10  H   PHE A   1       5.532  43.322 -21.696  0.00  0.00    +0.142 HD
ENDBRANCH   8   9
BRANCH   8  11
ATOM     11  C   PHE A   1       7.985  44.004 -23.013  0.00  0.00    +0.224 C 
ATOM     12  O   PHE A   1       7.568  45.055 -22.572  0.00  0.00    -0.287 OA
ENDBRANCH   8  11
ENDBRANCH   1   8
TORSDOF 4
REMARK  Name = ../refined-set-2016/4ynb/4ynb_pocket.pdb
REMARK  220 active torsions:
REMARK  status: ('A' for Active; 'I' for Inactive)
REMARK    1  A    between atoms: _1  and  _3
REMARK    2  A    between atoms: _3  and  _4
REMARK    3  A    between atoms: _6  and  _8
REMARK    4  A    between atoms: _8  and  _9
REMARK    5  A    between atoms: _12  and  _14
REMARK    6  A    between atoms: _14  and  _15
REMARK    7  A    between atoms: _14  and  _17
REMARK    8  A    between atoms: _17  and  _18
REMARK    9  A    between atoms: _18  and  _19
REMARK   10  A    between atoms: _21  and  _23
REMARK   11  A    between atoms: _23  and  _24
REMARK   12  A    between atoms: _23  and  _26
REMARK   13  A    between atoms: _26  and  _27
REMARK   14  A    between atoms: _27  and  _28
REMARK   15  A    between atoms: _31  and  _33
REMARK   16  A    between atoms: _33  and  _34
REMARK   17  A    between atoms: _33  and  _36
REMARK   18  A    between atoms: _36  and  _37
REMARK   19  A    between atoms: _37  and  _38
REMARK   20  A    between atoms: _41  and  _43
REMARK   21  A    between atoms: _43  and  _44
REMARK   22  A    between atoms: _43  and  _46
REMARK   23  A    between atoms: _46  and  _47
REMARK   24  A    between atoms: _49  and  _51
REMARK   25  A    between atoms: _51  and  _52
REMARK   26  A    between atoms: _51  and  _54
REMARK   27  A    between atoms: _54  and  _55
REMARK   28  A    between atoms: _55  and  _56
REMARK   29  A    between atoms: _56  and  _57
REMARK   30  A    between atoms: _57  and  _58
REMARK   31  A    between atoms: _62  and  _64
REMARK   32  A    between atoms: _64  and  _65
REMARK   33  A    between atoms: _64  and  _67
REMARK   34  A    between atoms: _67  and  _68
REMARK   35  A    between atoms: _71  and  _73
REMARK   36  A    between atoms: _73  and  _74
REMARK   37  A    between atoms: _76  and  _78
REMARK   38  A    between atoms: _78  and  _79
REMARK   39  A    between atoms: _78  and  _81
REMARK   40  A    between atoms: _81  and  _82
REMARK   41  A    between atoms: _88  and  _90
REMARK   42  A    between atoms: _90  and  _91
REMARK   43  A    between atoms: _93  and  _95
REMARK   44  A    between atoms: _95  and  _96
REMARK   45  A    between atoms: _95  and  _98
REMARK   46  A    between atoms: _101  and  _103
REMARK   47  A    between atoms: _103  and  _104
REMARK   48  A    between atoms: _107  and  _109
REMARK   49  A    between atoms: _109  and  _110
REMARK   50  A    between atoms: _112  and  _114
REMARK   51  A    between atoms: _114  and  _115
REMARK   52  A    between atoms: _114  and  _117
REMARK   53  A    between atoms: _117  and  _118
REMARK   54  A    between atoms: _120  and  _122
REMARK   55  A    between atoms: _122  and  _123
REMARK   56  A    between atoms: _122  and  _125
REMARK   57  A    between atoms: _125  and  _126
REMARK   58  A    between atoms: _129  and  _131
REMARK   59  A    between atoms: _131  and  _132
REMARK   60  A    between atoms: _131  and  _134
REMARK   61  A    between atoms: _134  and  _135
REMARK   62  A    between atoms: _140  and  _142
REMARK   63  A    between atoms: _142  and  _143
REMARK   64  A    between atoms: _146  and  _148
REMARK   65  A    between atoms: _148  and  _149
REMARK   66  A    between atoms: _148  and  _151
REMARK   67  A    between atoms: _151  and  _152
REMARK   68  A    between atoms: _154  and  _156
REMARK   69  A    between atoms: _156  and  _157
REMARK   70  A    between atoms: _159  and  _161
REMARK   71  A    between atoms: _161  and  _162
REMARK   72  A    between atoms: _161  and  _164
REMARK   73  A    between atoms: _164  and  _165
REMARK   74  A    between atoms: _168  and  _170
REMARK   75  A    between atoms: _170  and  _171
REMARK   76  A    between atoms: _170  and  _173
REMARK   77  A    between atoms: _173  and  _174
REMARK   78  A    between atoms: _174  and  _175
REMARK   79  A    between atoms: _180  and  _182
REMARK   80  A    between atoms: _182  and  _183
REMARK   81  A    between atoms: _182  and  _185
REMARK   82  A    between atoms: _185  and  _186
REMARK   83  A    between atoms: _192  and  _194
REMARK   84  A    between atoms: _194  and  _195
REMARK   85  A    between atoms: _194  and  _197
REMARK   86  A    between atoms: _200  and  _202
REMARK   87  A    between atoms: _202  and  _203
REMARK   88  A    between atoms: _202  and  _205
REMARK   89  A    between atoms: _205  and  _206
REMARK   90  A    between atoms: _211  and  _213
REMARK   91  A    between atoms: _213  and  _214
REMARK   92  A    between atoms: _213  and  _216
REMARK   93  A    between atoms: _216  and  _217
REMARK   94  A    between atoms: _219  and  _221
REMARK   95  A    between atoms: _221  and  _222
REMARK   96  A    between atoms: _221  and  _224
REMARK   97  A    between atoms: _224  and  _225
REMARK   98  A    between atoms: _225  and  _226
REMARK   99  A    between atoms: _226  and  _227
REMARK  100  A    between atoms: _227  and  _228
REMARK  101  A    between atoms: _232  and  _234
REMARK  102  A    between atoms: _234  and  _235
REMARK  103  A    between atoms: _234  and  _237
REMARK  104  A    between atoms: _237  and  _238
REMARK  105  A    between atoms: _241  and  _243
REMARK  106  A    between atoms: _243  and  _244
REMARK  107  A    between atoms: _247  and  _249
REMARK  108  A    between atoms: _249  and  _250
REMARK  109  A    between atoms: _249  and  _252
REMARK  110  A    between atoms: _255  and  _257
REMARK  111  A    between atoms: _257  and  _258
REMARK  112  A    between atoms: _257  and  _260
REMARK  113  A    between atoms: _260  and  _261
REMARK  114  A    between atoms: _261  and  _262
REMARK  115  A    between atoms: _265  and  _267
REMARK  116  A    between atoms: _267  and  _268
REMARK  117  A    between atoms: _267  and  _270
REMARK  118  A    between atoms: _270  and  _271
REMARK  119  A    between atoms: _271  and  _272
REMARK  120  A    between atoms: _274  and  _276
REMARK  121  A    between atoms: _276  and  _277
REMARK  122  A    between atoms: _276  and  _279
REMARK  123  A    between atoms: _279  and  _280
REMARK  124  A    between atoms: _280  and  _281
REMARK  125  A    between atoms: _284  and  _286
REMARK  126  A    between atoms: _286  and  _287
REMARK  127  A    between atoms: _289  and  _291
REMARK  128  A    between atoms: _291  and  _292
REMARK  129  A    between atoms: _291  and  _294
REMARK  130  A    between atoms: _294  and  _295
REMARK  131  A    between atoms: _295  and  _296
REMARK  132  A    between atoms: _296  and  _297
REMARK  133  A    between atoms: _306  and  _308
REMARK  134  A    between atoms: _308  and  _309
REMARK  135  A    between atoms: _308  and  _311
REMARK  136  A    between atoms: _311  and  _312
REMARK  137  A    between atoms: _314  and  _316
REMARK  138  A    between atoms: _316  and  _317
REMARK  139  A    between atoms: _316  and  _319
REMARK  140  A    between atoms: _319  and  _320
REMARK  141  A    between atoms: _323  and  _325
REMARK  142  A    between atoms: _325  and  _326
REMARK  143  A    between atoms: _325  and  _328
REMARK  144  A    between atoms: _328  and  _329
REMARK  145  A    between atoms: _331  and  _333
REMARK  146  A    between atoms: _333  and  _334
REMARK  147  A    between atoms: _333  and  _336
REMARK  148  A    between atoms: _336  and  _337
REMARK  149  A    between atoms: _340  and  _342
REMARK  150  A    between atoms: _342  and  _343
REMARK  151  A    between atoms: _342  and  _345
REMARK  152  A    between atoms: _345  and  _346
REMARK  153  A    between atoms: _351  and  _353
REMARK  154  A    between atoms: _353  and  _354
REMARK  155  A    between atoms: _357  and  _359
REMARK  156  A    between atoms: _359  and  _360
REMARK  157  A    between atoms: _359  and  _362
REMARK  158  A    between atoms: _362  and  _363
REMARK  159  A    between atoms: _366  and  _368
REMARK  160  A    between atoms: _368  and  _369
REMARK  161  A    between atoms: _368  and  _371
REMARK  162  A    between atoms: _371  and  _372
REMARK  163  A    between atoms: _372  and  _373
REMARK  164  A    between atoms: _373  and  _374
REMARK  165  A    between atoms: _374  and  _375
REMARK  166  A    between atoms: _379  and  _381
REMARK  167  A    between atoms: _381  and  _382
REMARK  168  A    between atoms: _385  and  _387
REMARK  169  A    between atoms: _387  and  _388
REMARK  170  A    between atoms: _390  and  _392
REMARK  171  A    between atoms: _392  and  _393
REMARK  172  A    between atoms: _392  and  _395
REMARK  173  A    between atoms: _395  and  _396
REMARK  174  A    between atoms: _398  and  _400
REMARK  175  A    between atoms: _400  and  _401
REMARK  176  A    between atoms: _400  and  _403
REMARK  177  A    between atoms: _403  and  _404
REMARK  178  A    between atoms: _410  and  _412
REMARK  179  A    between atoms: _412  and  _413
REMARK  180  A    between atoms: _412  and  _415
REMARK  181  A    between atoms: _415  and  _416
REMARK  182  A    between atoms: _419  and  _421
REMARK  183  A    between atoms: _421  and  _422
REMARK  184  A    between atoms: _421  and  _424
REMARK  185  A    between atoms: _424  and  _425
REMARK  186  A    between atoms: _428  and  _430
REMARK  187  A    between atoms: _430  and  _431
REMARK  188  A    between atoms: _430  and  _433
REMARK  189  A    between atoms: _433  and  _434
REMARK  190  A    between atoms: _437  and  _439
REMARK  191  A    between atoms: _439  and  _440
REMARK  192  A    between atoms: _439  and  _442
REMARK  193  A    between atoms: _442  and  _443
REMARK  194  A    between atoms: _446  and  _448
REMARK  195  A    between atoms: _448  and  _449
REMARK  196  A    between atoms: _448  and  _451
REMARK  197  A    between atoms: _451  and  _452
REMARK  198  A    between atoms: _454  and  _456
REMARK  199  A    between atoms: _456  and  _457
REMARK  200  A    between atoms: _460  and  _462
REMARK  201  A    between atoms: _462  and  _463
REMARK  202  A    between atoms: _462  and  _465
REMARK  203  A    between atoms: _465  and  _466
REMARK  204  A    between atoms: _472  and  _474
REMARK  205  A    between atoms: _474  and  _475
REMARK  206  A    between atoms: _474  and  _477
REMARK  207  A    between atoms: _477  and  _478
REMARK  208  A    between atoms: _481  and  _483
REMARK  209  A    between atoms: _483  and  _484
REMARK  210  A    between atoms: _483  and  _486
REMARK  211  A    between atoms: _486  and  _487
REMARK  212  A    between atoms: _492  and  _494
REMARK  213  A    between atoms: _494  and  _495
REMARK  214  A    between atoms: _494  and  _497
REMARK  215  A    between atoms: _497  and  _498
REMARK  216  A    between atoms: _504  and  _506
REMARK  217  A    between atoms: _506  and  _507
REMARK  218  A    between atoms: _506  and  _509
REMARK  219  A    between atoms: _509  and  _510
REMARK  220  A    between atoms: _514  and  _515
REMARK                            x       y       z     vdW  Elec       q    Type
REMARK                         _______ _______ _______ _____ _____    ______ ____
ROOT
ATOM      1  C   ALA A   3       9.879  52.373 -32.012  0.00  0.00    +0.241 C 
ATOM      2  O   ALA A   3      10.773  53.129 -31.645  0.00  0.00    -0.273 OA
ATOM      3  N   GLY A   4       9.122  52.601 -33.078  0.00  0.00    -0.295 N 
ATOM      4  H   GLY A   4       8.475  51.854 -33.402  0.00  0.00    +0.150 HD
ENDROOT
BRANCH   1   5
ATOM      5  CA  ALA A   3       9.574  51.086 -31.229  0.00  0.00    +0.149 C 
ATOM      6  CB  ALA A   3       8.313  51.273 -30.397  0.00  0.00    +0.031 C 
BRANCH   5   8
ATOM      7  C   VAL A   2      10.908  49.448 -30.012  0.00  0.00    +0.241 C 
ATOM      8  N   ALA A   3      10.698  50.710 -30.374  0.00  0.00    -0.297 N 
ATOM      9  H   ALA A   3      11.350  51.448 -30.040  0.00  0.00    +0.150 HD
ATOM     10  O   VAL A   2      10.175  48.518 -30.382  0.00  0.00    -0.273 OA
BRANCH   7  11
ATOM     11  CA  VAL A   2      12.083  49.200 -29.057  0.00  0.00    +0.148 C 
BRANCH  11  14
ATOM     12  C   GLY A   1      11.787  47.749 -27.131  0.00  0.00    +0.240 C 
ATOM     13  O   GLY A   1      11.510  48.671 -26.362  0.00  0.00    -0.274 OA
ATOM     14  N   VAL A   2      11.991  47.903 -28.437  0.00  0.00    -0.297 N 
ATOM     15  H   VAL A   2      12.088  47.056 -29.032  0.00  0.00    +0.150 HD
BRANCH  12  16
ATOM     16  CA  GLY A   1      11.871  46.331 -26.620  0.00  0.00    +0.169 C 
BRANCH  16  17
ATOM     17  N   GLY A   1      11.064  46.176 -25.409  0.00  0.00    -0.236 NA
ATOM     18  H   GLY A   1      10.599  47.007 -24.990  0.00  0.00    +0.142 HD
ENDBRANCH  16  17
ENDBRANCH  12  16
ENDBRANCH  11  14
BRANCH  11  19
ATOM     19  CB  VAL A   2      13.457  49.381 -29.746  0.00  0.00    +0.027 C 
ATOM     20  CG2 VAL A   2      14.588  49.131 -28.754  0.00  0.00    +0.002 C 
ATOM     21  CG1 VAL A   2      13.616  48.480 -30.970  0.00  0.00    +0.002 C 
ENDBRANCH  11  19
ENDBRANCH   7  11
ENDBRANCH   5   8
ENDBRANCH   1   5
BRANCH   3  22
ATOM     22  CA  GLY A   4       9.164  53.860 -33.811  0.00  0.00    +0.176 C 
BRANCH  22  23
ATOM     23  C   GLY A   4       8.187  54.865 -33.240  0.00  0.00    +0.243 C 
ATOM     24  O   GLY A   4       7.065  54.524 -32.908  0.00  0.00    -0.273 OA
ATOM     25  N   SER A   5       8.620  56.117 -33.109  0.00  0.00    -0.295 N 
ATOM     26  H   SER A   5       9.594  56.345 -33.392  0.00  0.00    +0.150 HD
BRANCH  25  27
ATOM     27  CA  SER A   5       7.768  57.184 -32.579  0.00  0.00    +0.178 C 
BRANCH  27  28
ATOM     28  C   SER A   5       6.934  57.796 -33.701  0.00  0.00    +0.243 C 
ATOM     29  N   LEU A   6       5.679  58.070 -33.380  0.00  0.00    -0.298 N 
ATOM     30  H   LEU A   6       5.350  57.803 -32.430  0.00  0.00    +0.150 HD
ATOM     31  O   SER A   5       7.431  58.022 -34.812  0.00  0.00    -0.273 OA
BRANCH  29  32
ATOM     32  CA  LEU A   6       4.735  58.719 -34.269  0.00  0.00    +0.137 C 
BRANCH  32  33
ATOM     33  C   LEU A   6       4.338  60.111 -33.780  0.00  0.00    +0.227 C 
ATOM     34  O   LEU A   6       3.520  60.755 -34.416  0.00  0.00    -0.286 OA
ENDBRANCH  32  33
BRANCH  32  35
ATOM     35  CB  LEU A   6       3.447  57.872 -34.326  0.00  0.00    +0.028 C 
BRANCH  35  36
ATOM     36  CG  LEU A   6       3.582  56.424 -34.786  0.00  0.00    +0.002 C 
ATOM     37  CD2 LEU A   6       2.242  55.704 -34.730  0.00  0.00    +0.000 C 
ATOM     38  CD1 LEU A   6       4.137  56.389 -36.185  0.00  0.00    +0.000 C 
ENDBRANCH  35  36
ENDBRANCH  32  35
ENDBRANCH  29  32
ENDBRANCH  27  28
BRANCH  27  39
ATOM     39  CB  SER A   5       8.598  58.304 -31.945  0.00  0.00    +0.166 C 
BRANCH  39  40
ATOM     40  OG  SER A   5       7.763  59.428 -31.680  0.00  0.00    -0.380 OA
ATOM     41  H   SER A   5       8.303  60.150 -31.270  0.00  0.00    +0.211 HD
ENDBRANCH  39  40
ENDBRANCH  27  39
ENDBRANCH  25  27
ENDBRANCH  22  23
ENDBRANCH   3  22
TORSDOF 17
REMARK  Name = ../refined-set-2016/4ynb/4ynb_pocket.pdb
REMARK  220 active torsions:
REMARK  status: ('A' for Active; 'I' for Inactive)
REMARK    1  A    between atoms: _1  and  _3
REMARK    2  A    between atoms: _3  and  _4
REMARK    3  A    between atoms: _6  and  _8
REMARK    4  A    between atoms: _8  and  _9
REMARK    5  A    between atoms: _12  and  _14
REMARK    6  A    between atoms: _14  and  _15
REMARK    7  A    between atoms: _14  and  _17
REMARK    8  A    between atoms: _17  and  _18
REMARK    9  A    between atoms: _18  and  _19
REMARK   10  A    between atoms: _21  and  _23
REMARK   11  A    between atoms: _23  and  _24
REMARK   12  A    between atoms: _23  and  _26
REMARK   13  A    between atoms: _26  and  _27
REMARK   14  A    between atoms: _27  and  _28
REMARK   15  A    between atoms: _31  and  _33
REMARK   16  A    between atoms: _33  and  _34
REMARK   17  A    between atoms: _33  and  _36
REMARK   18  A    between atoms: _36  and  _37
REMARK   19  A    between atoms: _37  and  _38
REMARK   20  A    between atoms: _41  and  _43
REMARK   21  A    between atoms: _43  and  _44
REMARK   22  A    between atoms: _43  and  _46
REMARK   23  A    between atoms: _46  and  _47
REMARK   24  A    between atoms: _49  and  _51
REMARK   25  A    between atoms: _51  and  _52
REMARK   26  A    between atoms: _51  and  _54
REMARK   27  A    between atoms: _54  and  _55
REMARK   28  A    between atoms: _55  and  _56
REMARK   29  A    between atoms: _56  and  _57
REMARK   30  A    between atoms: _57  and  _58
REMARK   31  A    between atoms: _62  and  _64
REMARK   32  A    between atoms: _64  and  _65
REMARK   33  A    between atoms: _64  and  _67
REMARK   34  A    between atoms: _67  and  _68
REMARK   35  A    between atoms: _71  and  _73
REMARK   36  A    between atoms: _73  and  _74
REMARK   37  A    between atoms: _76  and  _78
REMARK   38  A    between atoms: _78  and  _79
REMARK   39  A    between atoms: _78  and  _81
REMARK   40  A    between atoms: _81  and  _82
REMARK   41  A    between atoms: _88  and  _90
REMARK   42  A    between atoms: _90  and  _91
REMARK   43  A    between atoms: _93  and  _95
REMARK   44  A    between atoms: _95  and  _96
REMARK   45  A    between atoms: _95  and  _98
REMARK   46  A    between atoms: _101  and  _103
REMARK   47  A    between atoms: _103  and  _104
REMARK   48  A    between atoms: _107  and  _109
REMARK   49  A    between atoms: _109  and  _110
REMARK   50  A    between atoms: _112  and  _114
REMARK   51  A    between atoms: _114  and  _115
REMARK   52  A    between atoms: _114  and  _117
REMARK   53  A    between atoms: _117  and  _118
REMARK   54  A    between atoms: _120  and  _122
REMARK   55  A    between atoms: _122  and  _123
REMARK   56  A    between atoms: _122  and  _125
REMARK   57  A    between atoms: _125  and  _126
REMARK   58  A    between atoms: _129  and  _131
REMARK   59  A    between atoms: _131  and  _132
REMARK   60  A    between atoms: _131  and  _134
REMARK   61  A    between atoms: _134  and  _135
REMARK   62  A    between atoms: _140  and  _142
REMARK   63  A    between atoms: _142  and  _143
REMARK   64  A    between atoms: _146  and  _148
REMARK   65  A    between atoms: _148  and  _149
REMARK   66  A    between atoms: _148  and  _151
REMARK   67  A    between atoms: _151  and  _152
REMARK   68  A    between atoms: _154  and  _156
REMARK   69  A    between atoms: _156  and  _157
REMARK   70  A    between atoms: _159  and  _161
REMARK   71  A    between atoms: _161  and  _162
REMARK   72  A    between atoms: _161  and  _164
REMARK   73  A    between atoms: _164  and  _165
REMARK   74  A    between atoms: _168  and  _170
REMARK   75  A    between atoms: _170  and  _171
REMARK   76  A    between atoms: _170  and  _173
REMARK   77  A    between atoms: _173  and  _174
REMARK   78  A    between atoms: _174  and  _175
REMARK   79  A    between atoms: _180  and  _182
REMARK   80  A    between atoms: _182  and  _183
REMARK   81  A    between atoms: _182  and  _185
REMARK   82  A    between atoms: _185  and  _186
REMARK   83  A    between atoms: _192  and  _194
REMARK   84  A    between atoms: _194  and  _195
REMARK   85  A    between atoms: _194  and  _197
REMARK   86  A    between atoms: _200  and  _202
REMARK   87  A    between atoms: _202  and  _203
REMARK   88  A    between atoms: _202  and  _205
REMARK   89  A    between atoms: _205  and  _206
REMARK   90  A    between atoms: _211  and  _213
REMARK   91  A    between atoms: _213  and  _214
REMARK   92  A    between atoms: _213  and  _216
REMARK   93  A    between atoms: _216  and  _217
REMARK   94  A    between atoms: _219  and  _221
REMARK   95  A    between atoms: _221  and  _222
REMARK   96  A    between atoms: _221  and  _224
REMARK   97  A    between atoms: _224  and  _225
REMARK   98  A    between atoms: _225  and  _226
REMARK   99  A    between atoms: _226  and  _227
REMARK  100  A    between atoms: _227  and  _228
REMARK  101  A    between atoms: _232  and  _234
REMARK  102  A    between atoms: _234  and  _235
REMARK  103  A    between atoms: _234  and  _237
REMARK  104  A    between atoms: _237  and  _238
REMARK  105  A    between atoms: _241  and  _243
REMARK  106  A    between atoms: _243  and  _244
REMARK  107  A    between atoms: _247  and  _249
REMARK  108  A    between atoms: _249  and  _250
REMARK  109  A    between atoms: _249  and  _252
REMARK  110  A    between atoms: _255  and  _257
REMARK  111  A    between atoms: _257  and  _258
REMARK  112  A    between atoms: _257  and  _260
REMARK  113  A    between atoms: _260  and  _261
REMARK  114  A    between atoms: _261  and  _262
REMARK  115  A    between atoms: _265  and  _267
REMARK  116  A    between atoms: _267  and  _268
REMARK  117  A    between atoms: _267  and  _270
REMARK  118  A    between atoms: _270  and  _271
REMARK  119  A    between atoms: _271  and  _272
REMARK  120  A    between atoms: _274  and  _276
REMARK  121  A    between atoms: _276  and  _277
REMARK  122  A    between atoms: _276  and  _279
REMARK  123  A    between atoms: _279  and  _280
REMARK  124  A    between atoms: _280  and  _281
REMARK  125  A    between atoms: _284  and  _286
REMARK  126  A    between atoms: _286  and  _287
REMARK  127  A    between atoms: _289  and  _291
REMARK  128  A    between atoms: _291  and  _292
REMARK  129  A    between atoms: _291  and  _294
REMARK  130  A    between atoms: _294  and  _295
REMARK  131  A    between atoms: _295  and  _296
REMARK  132  A    between atoms: _296  and  _297
REMARK  133  A    between atoms: _306  and  _308
REMARK  134  A    between atoms: _308  and  _309
REMARK  135  A    between atoms: _308  and  _311
REMARK  136  A    between atoms: _311  and  _312
REMARK  137  A    between atoms: _314  and  _316
REMARK  138  A    between atoms: _316  and  _317
REMARK  139  A    between atoms: _316  and  _319
REMARK  140  A    between atoms: _319  and  _320
REMARK  141  A    between atoms: _323  and  _325
REMARK  142  A    between atoms: _325  and  _326
REMARK  143  A    between atoms: _325  and  _328
REMARK  144  A    between atoms: _328  and  _329
REMARK  145  A    between atoms: _331  and  _333
REMARK  146  A    between atoms: _333  and  _334
REMARK  147  A    between atoms: _333  and  _336
REMARK  148  A    between atoms: _336  and  _337
REMARK  149  A    between atoms: _340  and  _342
REMARK  150  A    between atoms: _342  and  _343
REMARK  151  A    between atoms: _342  and  _345
REMARK  152  A    between atoms: _345  and  _346
REMARK  153  A    between atoms: _351  and  _353
REMARK  154  A    between atoms: _353  and  _354
REMARK  155  A    between atoms: _357  and  _359
REMARK  156  A    between atoms: _359  and  _360
REMARK  157  A    between atoms: _359  and  _362
REMARK  158  A    between atoms: _362  and  _363
REMARK  159  A    between atoms: _366  and  _368
REMARK  160  A    between atoms: _368  and  _369
REMARK  161  A    between atoms: _368  and  _371
REMARK  162  A    between atoms: _371  and  _372
REMARK  163  A    between atoms: _372  and  _373
REMARK  164  A    between atoms: _373  and  _374
REMARK  165  A    between atoms: _374  and  _375
REMARK  166  A    between atoms: _379  and  _381
REMARK  167  A    between atoms: _381  and  _382
REMARK  168  A    between atoms: _385  and  _387
REMARK  169  A    between atoms: _387  and  _388
REMARK  170  A    between atoms: _390  and  _392
REMARK  171  A    between atoms: _392  and  _393
REMARK  172  A    between atoms: _392  and  _395
REMARK  173  A    between atoms: _395  and  _396
REMARK  174  A    between atoms: _398  and  _400
REMARK  175  A    between atoms: _400  and  _401
REMARK  176  A    between atoms: _400  and  _403
REMARK  177  A    between atoms: _403  and  _404
REMARK  178  A    between atoms: _410  and  _412
REMARK  179  A    between atoms: _412  and  _413
REMARK  180  A    between atoms: _412  and  _415
REMARK  181  A    between atoms: _415  and  _416
REMARK  182  A    between atoms: _419  and  _421
REMARK  183  A    between atoms: _421  and  _422
REMARK  184  A    between atoms: _421  and  _424
REMARK  185  A    between atoms: _424  and  _425
REMARK  186  A    between atoms: _428  and  _430
REMARK  187  A    between atoms: _430  and  _431
REMARK  188  A    between atoms: _430  and  _433
REMARK  189  A    between atoms: _433  and  _434
REMARK  190  A    between atoms: _437  and  _439
REMARK  191  A    between atoms: _439  and  _440
REMARK  192  A    between atoms: _439  and  _442
REMARK  193  A    between atoms: _442  and  _443
REMARK  194  A    between atoms: _446  and  _448
REMARK  195  A    between atoms: _448  and  _449
REMARK  196  A    between atoms: _448  and  _451
REMARK  197  A    between atoms: _451  and  _452
REMARK  198  A    between atoms: _454  and  _456
REMARK  199  A    between atoms: _456  and  _457
REMARK  200  A    between atoms: _460  and  _462
REMARK  201  A    between atoms: _462  and  _463
REMARK  202  A    between atoms: _462  and  _465
REMARK  203  A    between atoms: _465  and  _466
REMARK  204  A    between atoms: _472  and  _474
REMARK  205  A    between atoms: _474  and  _475
REMARK  206  A    between atoms: _474  and  _477
REMARK  207  A    between atoms: _477  and  _478
REMARK  208  A    between atoms: _481  and  _483
REMARK  209  A    between atoms: _483  and  _484
REMARK  210  A    between atoms: _483  and  _486
REMARK  211  A    between atoms: _486  and  _487
REMARK  212  A    between atoms: _492  and  _494
REMARK  213  A    between atoms: _494  and  _495
REMARK  214  A    between atoms: _494  and  _497
REMARK  215  A    between atoms: _497  and  _498
REMARK  216  A    between atoms: _504  and  _506
REMARK  217  A    between atoms: _506  and  _507
REMARK  218  A    between atoms: _506  and  _509
REMARK  219  A    between atoms: _509  and  _510
REMARK  220  A    between atoms: _514  and  _515
REMARK                            x       y       z     vdW  Elec       q    Type
REMARK                         _______ _______ _______ _____ _____    ______ ____
ROOT
ATOM      1  CB  HIS A   1      -1.627  49.562 -37.840  0.00  0.00    +0.072 C 
ENDROOT
BRANCH   1   2
ATOM      2  CG  HIS A   1      -0.248  49.225 -38.300  0.00  0.00    +0.082 A 
ATOM      3  CD2 HIS A   1       0.900  49.009 -37.610  0.00  0.00    +0.115 A 
ATOM      4  NE2 HIS A   1       1.887  48.757 -38.534  0.00  0.00    -0.221 NA
ATOM      5  CE1 HIS A   1       1.365  48.833 -39.748  0.00  0.00    +0.199 A 
ATOM      6  ND1 HIS A   1       0.083  49.135 -39.634  0.00  0.00    -0.227 NA
ENDBRANCH   1   2
BRANCH   1   7
ATOM      7  CA  HIS A   1      -2.666  48.453 -38.057  0.00  0.00    +0.139 C 
BRANCH   7   8
ATOM      8  N   HIS A   1      -2.436  47.355 -37.145  0.00  0.00    -0.239 NA
ATOM      9  H   HIS A   1      -1.491  47.228 -36.729  0.00  0.00    +0.142 HD
ENDBRANCH   7   8
BRANCH   7  10
ATOM     10  C   HIS A   1      -2.756  48.051 -39.512  0.00  0.00    +0.224 C 
ATOM     11  O   HIS A   1      -3.241  48.829 -40.322  0.00  0.00    -0.287 OA
ENDBRANCH   7  10
ENDBRANCH   1   7
TORSDOF 4
REMARK  Name = ../refined-set-2016/4ynb/4ynb_pocket.pdb
REMARK  220 active torsions:
REMARK  status: ('A' for Active; 'I' for Inactive)
REMARK    1  A    between atoms: _1  and  _3
REMARK    2  A    between atoms: _3  and  _4
REMARK    3  A    between atoms: _6  and  _8
REMARK    4  A    between atoms: _8  and  _9
REMARK    5  A    between atoms: _12  and  _14
REMARK    6  A    between atoms: _14  and  _15
REMARK    7  A    between atoms: _14  and  _17
REMARK    8  A    between atoms: _17  and  _18
REMARK    9  A    between atoms: _18  and  _19
REMARK   10  A    between atoms: _21  and  _23
REMARK   11  A    between atoms: _23  and  _24
REMARK   12  A    between atoms: _23  and  _26
REMARK   13  A    between atoms: _26  and  _27
REMARK   14  A    between atoms: _27  and  _28
REMARK   15  A    between atoms: _31  and  _33
REMARK   16  A    between atoms: _33  and  _34
REMARK   17  A    between atoms: _33  and  _36
REMARK   18  A    between atoms: _36  and  _37
REMARK   19  A    between atoms: _37  and  _38
REMARK   20  A    between atoms: _41  and  _43
REMARK   21  A    between atoms: _43  and  _44
REMARK   22  A    between atoms: _43  and  _46
REMARK   23  A    between atoms: _46  and  _47
REMARK   24  A    between atoms: _49  and  _51
REMARK   25  A    between atoms: _51  and  _52
REMARK   26  A    between atoms: _51  and  _54
REMARK   27  A    between atoms: _54  and  _55
REMARK   28  A    between atoms: _55  and  _56
REMARK   29  A    between atoms: _56  and  _57
REMARK   30  A    between atoms: _57  and  _58
REMARK   31  A    between atoms: _62  and  _64
REMARK   32  A    between atoms: _64  and  _65
REMARK   33  A    between atoms: _64  and  _67
REMARK   34  A    between atoms: _67  and  _68
REMARK   35  A    between atoms: _71  and  _73
REMARK   36  A    between atoms: _73  and  _74
REMARK   37  A    between atoms: _76  and  _78
REMARK   38  A    between atoms: _78  and  _79
REMARK   39  A    between atoms: _78  and  _81
REMARK   40  A    between atoms: _81  and  _82
REMARK   41  A    between atoms: _88  and  _90
REMARK   42  A    between atoms: _90  and  _91
REMARK   43  A    between atoms: _93  and  _95
REMARK   44  A    between atoms: _95  and  _96
REMARK   45  A    between atoms: _95  and  _98
REMARK   46  A    between atoms: _101  and  _103
REMARK   47  A    between atoms: _103  and  _104
REMARK   48  A    between atoms: _107  and  _109
REMARK   49  A    between atoms: _109  and  _110
REMARK   50  A    between atoms: _112  and  _114
REMARK   51  A    between atoms: _114  and  _115
REMARK   52  A    between atoms: _114  and  _117
REMARK   53  A    between atoms: _117  and  _118
REMARK   54  A    between atoms: _120  and  _122
REMARK   55  A    between atoms: _122  and  _123
REMARK   56  A    between atoms: _122  and  _125
REMARK   57  A    between atoms: _125  and  _126
REMARK   58  A    between atoms: _129  and  _131
REMARK   59  A    between atoms: _131  and  _132
REMARK   60  A    between atoms: _131  and  _134
REMARK   61  A    between atoms: _134  and  _135
REMARK   62  A    between atoms: _140  and  _142
REMARK   63  A    between atoms: _142  and  _143
REMARK   64  A    between atoms: _146  and  _148
REMARK   65  A    between atoms: _148  and  _149
REMARK   66  A    between atoms: _148  and  _151
REMARK   67  A    between atoms: _151  and  _152
REMARK   68  A    between atoms: _154  and  _156
REMARK   69  A    between atoms: _156  and  _157
REMARK   70  A    between atoms: _159  and  _161
REMARK   71  A    between atoms: _161  and  _162
REMARK   72  A    between atoms: _161  and  _164
REMARK   73  A    between atoms: _164  and  _165
REMARK   74  A    between atoms: _168  and  _170
REMARK   75  A    between atoms: _170  and  _171
REMARK   76  A    between atoms: _170  and  _173
REMARK   77  A    between atoms: _173  and  _174
REMARK   78  A    between atoms: _174  and  _175
REMARK   79  A    between atoms: _180  and  _182
REMARK   80  A    between atoms: _182  and  _183
REMARK   81  A    between atoms: _182  and  _185
REMARK   82  A    between atoms: _185  and  _186
REMARK   83  A    between atoms: _192  and  _194
REMARK   84  A    between atoms: _194  and  _195
REMARK   85  A    between atoms: _194  and  _197
REMARK   86  A    between atoms: _200  and  _202
REMARK   87  A    between atoms: _202  and  _203
REMARK   88  A    between atoms: _202  and  _205
REMARK   89  A    between atoms: _205  and  _206
REMARK   90  A    between atoms: _211  and  _213
REMARK   91  A    between atoms: _213  and  _214
REMARK   92  A    between atoms: _213  and  _216
REMARK   93  A    between atoms: _216  and  _217
REMARK   94  A    between atoms: _219  and  _221
REMARK   95  A    between atoms: _221  and  _222
REMARK   96  A    between atoms: _221  and  _224
REMARK   97  A    between atoms: _224  and  _225
REMARK   98  A    between atoms: _225  and  _226
REMARK   99  A    between atoms: _226  and  _227
REMARK  100  A    between atoms: _227  and  _228
REMARK  101  A    between atoms: _232  and  _234
REMARK  102  A    between atoms: _234  and  _235
REMARK  103  A    between atoms: _234  and  _237
REMARK  104  A    between atoms: _237  and  _238
REMARK  105  A    between atoms: _241  and  _243
REMARK  106  A    between atoms: _243  and  _244
REMARK  107  A    between atoms: _247  and  _249
REMARK  108  A    between atoms: _249  and  _250
REMARK  109  A    between atoms: _249  and  _252
REMARK  110  A    between atoms: _255  and  _257
REMARK  111  A    between atoms: _257  and  _258
REMARK  112  A    between atoms: _257  and  _260
REMARK  113  A    between atoms: _260  and  _261
REMARK  114  A    between atoms: _261  and  _262
REMARK  115  A    between atoms: _265  and  _267
REMARK  116  A    between atoms: _267  and  _268
REMARK  117  A    between atoms: _267  and  _270
REMARK  118  A    between atoms: _270  and  _271
REMARK  119  A    between atoms: _271  and  _272
REMARK  120  A    between atoms: _274  and  _276
REMARK  121  A    between atoms: _276  and  _277
REMARK  122  A    between atoms: _276  and  _279
REMARK  123  A    between atoms: _279  and  _280
REMARK  124  A    between atoms: _280  and  _281
REMARK  125  A    between atoms: _284  and  _286
REMARK  126  A    between atoms: _286  and  _287
REMARK  127  A    between atoms: _289  and  _291
REMARK  128  A    between atoms: _291  and  _292
REMARK  129  A    between atoms: _291  and  _294
REMARK  130  A    between atoms: _294  and  _295
REMARK  131  A    between atoms: _295  and  _296
REMARK  132  A    between atoms: _296  and  _297
REMARK  133  A    between atoms: _306  and  _308
REMARK  134  A    between atoms: _308  and  _309
REMARK  135  A    between atoms: _308  and  _311
REMARK  136  A    between atoms: _311  and  _312
REMARK  137  A    between atoms: _314  and  _316
REMARK  138  A    between atoms: _316  and  _317
REMARK  139  A    between atoms: _316  and  _319
REMARK  140  A    between atoms: _319  and  _320
REMARK  141  A    between atoms: _323  and  _325
REMARK  142  A    between atoms: _325  and  _326
REMARK  143  A    between atoms: _325  and  _328
REMARK  144  A    between atoms: _328  and  _329
REMARK  145  A    between atoms: _331  and  _333
REMARK  146  A    between atoms: _333  and  _334
REMARK  147  A    between atoms: _333  and  _336
REMARK  148  A    between atoms: _336  and  _337
REMARK  149  A    between atoms: _340  and  _342
REMARK  150  A    between atoms: _342  and  _343
REMARK  151  A    between atoms: _342  and  _345
REMARK  152  A    between atoms: _345  and  _346
REMARK  153  A    between atoms: _351  and  _353
REMARK  154  A    between atoms: _353  and  _354
REMARK  155  A    between atoms: _357  and  _359
REMARK  156  A    between atoms: _359  and  _360
REMARK  157  A    between atoms: _359  and  _362
REMARK  158  A    between atoms: _362  and  _363
REMARK  159  A    between atoms: _366  and  _368
REMARK  160  A    between atoms: _368  and  _369
REMARK  161  A    between atoms: _368  and  _371
REMARK  162  A    between atoms: _371  and  _372
REMARK  163  A    between atoms: _372  and  _373
REMARK  164  A    between atoms: _373  and  _374
REMARK  165  A    between atoms: _374  and  _375
REMARK  166  A    between atoms: _379  and  _381
REMARK  167  A    between atoms: _381  and  _382
REMARK  168  A    between atoms: _385  and  _387
REMARK  169  A    between atoms: _387  and  _388
REMARK  170  A    between atoms: _390  and  _392
REMARK  171  A    between atoms: _392  and  _393
REMARK  172  A    between atoms: _392  and  _395
REMARK  173  A    between atoms: _395  and  _396
REMARK  174  A    between atoms: _398  and  _400
REMARK  175  A    between atoms: _400  and  _401
REMARK  176  A    between atoms: _400  and  _403
REMARK  177  A    between atoms: _403  and  _404
REMARK  178  A    between atoms: _410  and  _412
REMARK  179  A    between atoms: _412  and  _413
REMARK  180  A    between atoms: _412  and  _415
REMARK  181  A    between atoms: _415  and  _416
REMARK  182  A    between atoms: _419  and  _421
REMARK  183  A    between atoms: _421  and  _422
REMARK  184  A    between atoms: _421  and  _424
REMARK  185  A    between atoms: _424  and  _425
REMARK  186  A    between atoms: _428  and  _430
REMARK  187  A    between atoms: _430  and  _431
REMARK  188  A    between atoms: _430  and  _433
REMARK  189  A    between atoms: _433  and  _434
REMARK  190  A    between atoms: _437  and  _439
REMARK  191  A    between atoms: _439  and  _440
REMARK  192  A    between atoms: _439  and  _442
REMARK  193  A    between atoms: _442  and  _443
REMARK  194  A    between atoms: _446  and  _448
REMARK  195  A    between atoms: _448  and  _449
REMARK  196  A    between atoms: _448  and  _451
REMARK  197  A    between atoms: _451  and  _452
REMARK  198  A    between atoms: _454  and  _456
REMARK  199  A    between atoms: _456  and  _457
REMARK  200  A    between atoms: _460  and  _462
REMARK  201  A    between atoms: _462  and  _463
REMARK  202  A    between atoms: _462  and  _465
REMARK  203  A    between atoms: _465  and  _466
REMARK  204  A    between atoms: _472  and  _474
REMARK  205  A    between atoms: _474  and  _475
REMARK  206  A    between atoms: _474  and  _477
REMARK  207  A    between atoms: _477  and  _478
REMARK  208  A    between atoms: _481  and  _483
REMARK  209  A    between atoms: _483  and  _484
REMARK  210  A    between atoms: _483  and  _486
REMARK  211  A    between atoms: _486  and  _487
REMARK  212  A    between atoms: _492  and  _494
REMARK  213  A    between atoms: _494  and  _495
REMARK  214  A    between atoms: _494  and  _497
REMARK  215  A    between atoms: _497  and  _498
REMARK  216  A    between atoms: _504  and  _506
REMARK  217  A    between atoms: _506  and  _507
REMARK  218  A    between atoms: _506  and  _509
REMARK  219  A    between atoms: _509  and  _510
REMARK  220  A    between atoms: _514  and  _515
REMARK                            x       y       z     vdW  Elec       q    Type
REMARK                         _______ _______ _______ _____ _____    ______ ____
ROOT
ATOM      1  C   GLN A   5       6.785  46.858 -41.046  0.00  0.00    +0.241 C 
ATOM      2  O   GLN A   5       6.277  47.364 -40.029  0.00  0.00    -0.273 OA
ATOM      3  N   PHE A   6       8.046  47.063 -41.391  0.00  0.00    -0.297 N 
ATOM      4  H   PHE A   6       8.484  46.481 -42.133  0.00  0.00    +0.150 HD
ENDROOT
BRANCH   1   5
ATOM      5  CA  GLN A   5       5.965  45.933 -41.950  0.00  0.00    +0.149 C 
BRANCH   5   7
ATOM      6  C   ASP A   4       4.990  43.803 -41.229  0.00  0.00    +0.241 C 
ATOM      7  N   GLN A   5       5.087  45.125 -41.113  0.00  0.00    -0.297 N 
ATOM      8  H   GLN A   5       4.510  45.604 -40.392  0.00  0.00    +0.150 HD
ATOM      9  O   ASP A   4       5.615  43.168 -42.060  0.00  0.00    -0.273 OA
BRANCH   6  10
ATOM     10  CA  ASP A   4       4.142  43.070 -40.163  0.00  0.00    +0.160 C 
BRANCH  10  13
ATOM     11  C   GLY A   3       3.173  44.571 -38.509  0.00  0.00    +0.243 C 
ATOM     12  O   GLY A   3       4.239  44.730 -37.902  0.00  0.00    -0.273 OA
ATOM     13  N   ASP A   4       3.057  43.863 -39.623  0.00  0.00    -0.296 N 
ATOM     14  H   ASP A   4       2.149  43.877 -40.131  0.00  0.00    +0.150 HD
BRANCH  11  15
ATOM     15  CA  GLY A   3       1.915  45.248 -38.024  0.00  0.00    +0.176 C 
BRANCH  15  18
ATOM     16  C   SER A   2       1.165  46.236 -35.940  0.00  0.00    +0.243 C 
ATOM     17  O   SER A   2      -0.035  46.065 -36.214  0.00  0.00    -0.273 OA
ATOM     18  N   GLY A   3       2.155  45.901 -36.758  0.00  0.00    -0.295 N 
ATOM     19  H   GLY A   3       3.134  46.115 -36.479  0.00  0.00    +0.150 HD
BRANCH  16  20
ATOM     20  CA  SER A   2       1.581  46.807 -34.583  0.00  0.00    +0.178 C 
BRANCH  20  23
ATOM     21  C   ALA A   1       1.202  49.110 -33.895  0.00  0.00    +0.238 C 
ATOM     22  O   ALA A   1       2.399  49.368 -33.890  0.00  0.00    -0.274 OA
ATOM     23  N   SER A   2       0.720  47.917 -34.215  0.00  0.00    -0.295 N 
ATOM     24  H   SER A   2      -0.310  47.771 -34.202  0.00  0.00    +0.150 HD
BRANCH  21  25
ATOM     25  CA  ALA A   1       0.183  50.172 -33.527  0.00  0.00    +0.145 C 
ATOM     26  CB  ALA A   1       0.058  51.175 -34.661  0.00  0.00    +0.028 C 
BRANCH  25  27
ATOM     27  N   ALA A   1       0.618  50.847 -32.329  0.00  0.00    -0.238 NA
ATOM     28  H   ALA A   1       1.337  51.593 -32.416  0.00  0.00    +0.142 HD
ENDBRANCH  25  27
ENDBRANCH  21  25
ENDBRANCH  20  23
BRANCH  20  29
ATOM     29  CB  SER A   2       1.487  45.685 -33.537  0.00  0.00    +0.166 C 
BRANCH  29  30
ATOM     30  OG  SER A   2       1.828  46.138 -32.238  0.00  0.00    -0.380 OA
ATOM     31  H   SER A   2       2.757  46.480 -32.242  0.00  0.00    +0.211 HD
ENDBRANCH  29  30
ENDBRANCH  20  29
ENDBRANCH  16  20
ENDBRANCH  15  18
ENDBRANCH  11  15
ENDBRANCH  10  13
BRANCH  10  32
ATOM     32  CB  ASP A   4       3.597  41.736 -40.685  0.00  0.00    +0.143 C 
BRANCH  32  33
ATOM     33  CG  ASP A   4       3.528  40.659 -39.593  0.00  0.00    +0.367 C 
ATOM     34  OD2 ASP A   4       4.066  40.893 -38.470  0.00  0.00    -0.246 OA
ATOM     35  OD1 ASP A   4       2.934  39.566 -39.853  0.00  0.00    -0.246 OA
ENDBRANCH  32  33
ENDBRANCH  10  32
ENDBRANCH   6  10
ENDBRANCH   5   7
BRANCH   5  36
ATOM     36  CB  GLN A   5       5.161  46.801 -42.946  0.00  0.00    +0.039 C 
BRANCH  36  37
ATOM     37  CG  GLN A   5       4.088  46.053 -43.708  0.00  0.00    +0.087 C 
BRANCH  37  38
ATOM     38  CD  GLN A   5       2.863  45.773 -42.861  0.00  0.00    +0.219 C 
ATOM     39  OE1 GLN A   5       2.399  46.619 -42.113  0.00  0.00    -0.275 OA
ATOM     40  NE2 GLN A   5       2.323  44.596 -43.005  0.00  0.00    -0.329 N 
ATOM     41 HE21 GLN A   5       1.465  44.349 -42.472  0.00  0.00    +0.145 HD
ATOM     42 HE22 GLN A   5       2.750  43.904 -43.653  0.00  0.00    +0.145 HD
ENDBRANCH  37  38
ENDBRANCH  36  37
ENDBRANCH   5  36
ENDBRANCH   1   5
BRANCH   3  43
ATOM     43  CA  PHE A   6       8.815  48.100 -40.733  0.00  0.00    +0.153 C 
BRANCH  43  44
ATOM     44  C   PHE A   6       8.380  49.420 -41.341  0.00  0.00    +0.241 C 
ATOM     45  N   VAL A   7       7.940  50.359 -40.511  0.00  0.00    -0.297 N 
ATOM     46  H   VAL A   7       8.013  50.208 -39.485  0.00  0.00    +0.150 HD
ATOM     47  O   PHE A   6       8.382  49.559 -42.559  0.00  0.00    -0.273 OA
BRANCH  45  48
ATOM     48  CA  VAL A   7       7.360  51.589 -41.009  0.00  0.00    +0.149 C 
BRANCH  48  49
ATOM     49  C   VAL A   7       8.468  52.643 -41.154  0.00  0.00    +0.241 C 
ATOM     50  O   VAL A   7       9.204  52.911 -40.204  0.00  0.00    -0.273 OA
ATOM     51  N   HIS A   8       8.587  53.203 -42.353  0.00  0.00    -0.297 N 
ATOM     52  H   HIS A   8       7.904  52.955 -43.097  0.00  0.00    +0.150 HD
BRANCH  51  53
ATOM     53  CA  HIS A   8       9.660  54.165 -42.657  0.00  0.00    +0.155 C 
BRANCH  53  54
ATOM     54  C   HIS A   8       9.228  55.138 -43.760  0.00  0.00    +0.241 C 
ATOM     55  N   SER A   9       8.090  55.773 -43.561  0.00  0.00    -0.296 N 
ATOM     56  H   SER A   9       7.581  55.643 -42.663  0.00  0.00    +0.150 HD
ATOM     57  O   HIS A   8       9.934  55.338 -44.748  0.00  0.00    -0.273 OA
BRANCH  55  58
ATOM     58  CA  SER A   9       7.538  56.647 -44.572  0.00  0.00    +0.166 C 
BRANCH  58  59
ATOM     59  CB  SER A   9       6.569  57.560 -43.901  0.00  0.00    +0.229 C 
ATOM     60  OG  SER A   9       5.866  57.195 -42.935  0.00  0.00    -0.286 OA
ENDBRANCH  58  59
BRANCH  58  61
ATOM     61  C   SER A   9       6.844  55.856 -45.685  0.00  0.00    +0.165 C 
BRANCH  61  62
ATOM     62  O   SER A   9       5.591  55.366 -45.241  0.00  0.00    -0.380 OA
ATOM     63  H   SER A   9       5.158  54.858 -45.973  0.00  0.00    +0.211 HD
ENDBRANCH  61  62
ENDBRANCH  58  61
ENDBRANCH  55  58
ENDBRANCH  53  54
BRANCH  53  64
ATOM     64  CB  HIS A   8      10.963  53.446 -43.040  0.00  0.00    +0.076 C 
BRANCH  64  65
ATOM     65  CG  HIS A   8      10.862  52.605 -44.266  0.00  0.00    +0.082 A 
ATOM     66  CD2 HIS A   8      10.068  51.545 -44.559  0.00  0.00    +0.115 A 
ATOM     67  NE2 HIS A   8      10.379  51.145 -45.835  0.00  0.00    -0.221 NA
ATOM     68  CE1 HIS A   8      11.340  51.923 -46.310  0.00  0.00    +0.199 A 
ATOM     69  ND1 HIS A   8      11.654  52.809 -45.379  0.00  0.00    -0.227 NA
ENDBRANCH  64  65
ENDBRANCH  53  64
ENDBRANCH  51  53
ENDBRANCH  48  49
BRANCH  48  70
ATOM     70  CB  VAL A   7       6.226  52.076 -40.086  0.00  0.00    +0.027 C 
ATOM     71  CG2 VAL A   7       5.056  51.090 -40.124  0.00  0.00    +0.002 C 
ATOM     72  CG1 VAL A   7       5.760  53.489 -40.477  0.00  0.00    +0.002 C 
ENDBRANCH  48  70
ENDBRANCH  45  48
ENDBRANCH  43  44
BRANCH  43  73
ATOM     73  CB  PHE A   6      10.293  47.870 -40.901  0.00  0.00    +0.055 C 
BRANCH  73  74
ATOM     74  CG  PHE A   6      11.151  48.842 -40.132  0.00  0.00    -0.020 A 
ATOM     75  CD2 PHE A   6      11.419  48.639 -38.794  0.00  0.00    -0.004 A 
ATOM     76  CE2 PHE A   6      12.245  49.500 -38.089  0.00  0.00    -0.000 A 
ATOM     77  CZ  PHE A   6      12.803  50.595 -38.734  0.00  0.00    -0.000 A 
ATOM     78  CE1 PHE A   6      12.535  50.810 -40.071  0.00  0.00    -0.000 A 
ATOM     79  CD1 PHE A   6      11.714  49.934 -40.762  0.00  0.00    -0.004 A 
ENDBRANCH  73  74
ENDBRANCH  43  73
ENDBRANCH   3  43
TORSDOF 32
REMARK  Name = ../refined-set-2016/4ynb/4ynb_pocket.pdb
REMARK  220 active torsions:
REMARK  status: ('A' for Active; 'I' for Inactive)
REMARK    1  A    between atoms: _1  and  _3
REMARK    2  A    between atoms: _3  and  _4
REMARK    3  A    between atoms: _6  and  _8
REMARK    4  A    between atoms: _8  and  _9
REMARK    5  A    between atoms: _12  and  _14
REMARK    6  A    between atoms: _14  and  _15
REMARK    7  A    between atoms: _14  and  _17
REMARK    8  A    between atoms: _17  and  _18
REMARK    9  A    between atoms: _18  and  _19
REMARK   10  A    between atoms: _21  and  _23
REMARK   11  A    between atoms: _23  and  _24
REMARK   12  A    between atoms: _23  and  _26
REMARK   13  A    between atoms: _26  and  _27
REMARK   14  A    between atoms: _27  and  _28
REMARK   15  A    between atoms: _31  and  _33
REMARK   16  A    between atoms: _33  and  _34
REMARK   17  A    between atoms: _33  and  _36
REMARK   18  A    between atoms: _36  and  _37
REMARK   19  A    between atoms: _37  and  _38
REMARK   20  A    between atoms: _41  and  _43
REMARK   21  A    between atoms: _43  and  _44
REMARK   22  A    between atoms: _43  and  _46
REMARK   23  A    between atoms: _46  and  _47
REMARK   24  A    between atoms: _49  and  _51
REMARK   25  A    between atoms: _51  and  _52
REMARK   26  A    between atoms: _51  and  _54
REMARK   27  A    between atoms: _54  and  _55
REMARK   28  A    between atoms: _55  and  _56
REMARK   29  A    between atoms: _56  and  _57
REMARK   30  A    between atoms: _57  and  _58
REMARK   31  A    between atoms: _62  and  _64
REMARK   32  A    between atoms: _64  and  _65
REMARK   33  A    between atoms: _64  and  _67
REMARK   34  A    between atoms: _67  and  _68
REMARK   35  A    between atoms: _71  and  _73
REMARK   36  A    between atoms: _73  and  _74
REMARK   37  A    between atoms: _76  and  _78
REMARK   38  A    between atoms: _78  and  _79
REMARK   39  A    between atoms: _78  and  _81
REMARK   40  A    between atoms: _81  and  _82
REMARK   41  A    between atoms: _88  and  _90
REMARK   42  A    between atoms: _90  and  _91
REMARK   43  A    between atoms: _93  and  _95
REMARK   44  A    between atoms: _95  and  _96
REMARK   45  A    between atoms: _95  and  _98
REMARK   46  A    between atoms: _101  and  _103
REMARK   47  A    between atoms: _103  and  _104
REMARK   48  A    between atoms: _107  and  _109
REMARK   49  A    between atoms: _109  and  _110
REMARK   50  A    between atoms: _112  and  _114
REMARK   51  A    between atoms: _114  and  _115
REMARK   52  A    between atoms: _114  and  _117
REMARK   53  A    between atoms: _117  and  _118
REMARK   54  A    between atoms: _120  and  _122
REMARK   55  A    between atoms: _122  and  _123
REMARK   56  A    between atoms: _122  and  _125
REMARK   57  A    between atoms: _125  and  _126
REMARK   58  A    between atoms: _129  and  _131
REMARK   59  A    between atoms: _131  and  _132
REMARK   60  A    between atoms: _131  and  _134
REMARK   61  A    between atoms: _134  and  _135
REMARK   62  A    between atoms: _140  and  _142
REMARK   63  A    between atoms: _142  and  _143
REMARK   64  A    between atoms: _146  and  _148
REMARK   65  A    between atoms: _148  and  _149
REMARK   66  A    between atoms: _148  and  _151
REMARK   67  A    between atoms: _151  and  _152
REMARK   68  A    between atoms: _154  and  _156
REMARK   69  A    between atoms: _156  and  _157
REMARK   70  A    between atoms: _159  and  _161
REMARK   71  A    between atoms: _161  and  _162
REMARK   72  A    between atoms: _161  and  _164
REMARK   73  A    between atoms: _164  and  _165
REMARK   74  A    between atoms: _168  and  _170
REMARK   75  A    between atoms: _170  and  _171
REMARK   76  A    between atoms: _170  and  _173
REMARK   77  A    between atoms: _173  and  _174
REMARK   78  A    between atoms: _174  and  _175
REMARK   79  A    between atoms: _180  and  _182
REMARK   80  A    between atoms: _182  and  _183
REMARK   81  A    between atoms: _182  and  _185
REMARK   82  A    between atoms: _185  and  _186
REMARK   83  A    between atoms: _192  and  _194
REMARK   84  A    between atoms: _194  and  _195
REMARK   85  A    between atoms: _194  and  _197
REMARK   86  A    between atoms: _200  and  _202
REMARK   87  A    between atoms: _202  and  _203
REMARK   88  A    between atoms: _202  and  _205
REMARK   89  A    between atoms: _205  and  _206
REMARK   90  A    between atoms: _211  and  _213
REMARK   91  A    between atoms: _213  and  _214
REMARK   92  A    between atoms: _213  and  _216
REMARK   93  A    between atoms: _216  and  _217
REMARK   94  A    between atoms: _219  and  _221
REMARK   95  A    between atoms: _221  and  _222
REMARK   96  A    between atoms: _221  and  _224
REMARK   97  A    between atoms: _224  and  _225
REMARK   98  A    between atoms: _225  and  _226
REMARK   99  A    between atoms: _226  and  _227
REMARK  100  A    between atoms: _227  and  _228
REMARK  101  A    between atoms: _232  and  _234
REMARK  102  A    between atoms: _234  and  _235
REMARK  103  A    between atoms: _234  and  _237
REMARK  104  A    between atoms: _237  and  _238
REMARK  105  A    between atoms: _241  and  _243
REMARK  106  A    between atoms: _243  and  _244
REMARK  107  A    between atoms: _247  and  _249
REMARK  108  A    between atoms: _249  and  _250
REMARK  109  A    between atoms: _249  and  _252
REMARK  110  A    between atoms: _255  and  _257
REMARK  111  A    between atoms: _257  and  _258
REMARK  112  A    between atoms: _257  and  _260
REMARK  113  A    between atoms: _260  and  _261
REMARK  114  A    between atoms: _261  and  _262
REMARK  115  A    between atoms: _265  and  _267
REMARK  116  A    between atoms: _267  and  _268
REMARK  117  A    between atoms: _267  and  _270
REMARK  118  A    between atoms: _270  and  _271
REMARK  119  A    between atoms: _271  and  _272
REMARK  120  A    between atoms: _274  and  _276
REMARK  121  A    between atoms: _276  and  _277
REMARK  122  A    between atoms: _276  and  _279
REMARK  123  A    between atoms: _279  and  _280
REMARK  124  A    between atoms: _280  and  _281
REMARK  125  A    between atoms: _284  and  _286
REMARK  126  A    between atoms: _286  and  _287
REMARK  127  A    between atoms: _289  and  _291
REMARK  128  A    between atoms: _291  and  _292
REMARK  129  A    between atoms: _291  and  _294
REMARK  130  A    between atoms: _294  and  _295
REMARK  131  A    between atoms: _295  and  _296
REMARK  132  A    between atoms: _296  and  _297
REMARK  133  A    between atoms: _306  and  _308
REMARK  134  A    between atoms: _308  and  _309
REMARK  135  A    between atoms: _308  and  _311
REMARK  136  A    between atoms: _311  and  _312
REMARK  137  A    between atoms: _314  and  _316
REMARK  138  A    between atoms: _316  and  _317
REMARK  139  A    between atoms: _316  and  _319
REMARK  140  A    between atoms: _319  and  _320
REMARK  141  A    between atoms: _323  and  _325
REMARK  142  A    between atoms: _325  and  _326
REMARK  143  A    between atoms: _325  and  _328
REMARK  144  A    between atoms: _328  and  _329
REMARK  145  A    between atoms: _331  and  _333
REMARK  146  A    between atoms: _333  and  _334
REMARK  147  A    between atoms: _333  and  _336
REMARK  148  A    between atoms: _336  and  _337
REMARK  149  A    between atoms: _340  and  _342
REMARK  150  A    between atoms: _342  and  _343
REMARK  151  A    between atoms: _342  and  _345
REMARK  152  A    between atoms: _345  and  _346
REMARK  153  A    between atoms: _351  and  _353
REMARK  154  A    between atoms: _353  and  _354
REMARK  155  A    between atoms: _357  and  _359
REMARK  156  A    between atoms: _359  and  _360
REMARK  157  A    between atoms: _359  and  _362
REMARK  158  A    between atoms: _362  and  _363
REMARK  159  A    between atoms: _366  and  _368
REMARK  160  A    between atoms: _368  and  _369
REMARK  161  A    between atoms: _368  and  _371
REMARK  162  A    between atoms: _371  and  _372
REMARK  163  A    between atoms: _372  and  _373
REMARK  164  A    between atoms: _373  and  _374
REMARK  165  A    between atoms: _374  and  _375
REMARK  166  A    between atoms: _379  and  _381
REMARK  167  A    between atoms: _381  and  _382
REMARK  168  A    between atoms: _385  and  _387
REMARK  169  A    between atoms: _387  and  _388
REMARK  170  A    between atoms: _390  and  _392
REMARK  171  A    between atoms: _392  and  _393
REMARK  172  A    between atoms: _392  and  _395
REMARK  173  A    between atoms: _395  and  _396
REMARK  174  A    between atoms: _398  and  _400
REMARK  175  A    between atoms: _400  and  _401
REMARK  176  A    between atoms: _400  and  _403
REMARK  177  A    between atoms: _403  and  _404
REMARK  178  A    between atoms: _410  and  _412
REMARK  179  A    between atoms: _412  and  _413
REMARK  180  A    between atoms: _412  and  _415
REMARK  181  A    between atoms: _415  and  _416
REMARK  182  A    between atoms: _419  and  _421
REMARK  183  A    between atoms: _421  and  _422
REMARK  184  A    between atoms: _421  and  _424
REMARK  185  A    between atoms: _424  and  _425
REMARK  186  A    between atoms: _428  and  _430
REMARK  187  A    between atoms: _430  and  _431
REMARK  188  A    between atoms: _430  and  _433
REMARK  189  A    between atoms: _433  and  _434
REMARK  190  A    between atoms: _437  and  _439
REMARK  191  A    between atoms: _439  and  _440
REMARK  192  A    between atoms: _439  and  _442
REMARK  193  A    between atoms: _442  and  _443
REMARK  194  A    between atoms: _446  and  _448
REMARK  195  A    between atoms: _448  and  _449
REMARK  196  A    between atoms: _448  and  _451
REMARK  197  A    between atoms: _451  and  _452
REMARK  198  A    between atoms: _454  and  _456
REMARK  199  A    between atoms: _456  and  _457
REMARK  200  A    between atoms: _460  and  _462
REMARK  201  A    between atoms: _462  and  _463
REMARK  202  A    between atoms: _462  and  _465
REMARK  203  A    between atoms: _465  and  _466
REMARK  204  A    between atoms: _472  and  _474
REMARK  205  A    between atoms: _474  and  _475
REMARK  206  A    between atoms: _474  and  _477
REMARK  207  A    between atoms: _477  and  _478
REMARK  208  A    between atoms: _481  and  _483
REMARK  209  A    between atoms: _483  and  _484
REMARK  210  A    between atoms: _483  and  _486
REMARK  211  A    between atoms: _486  and  _487
REMARK  212  A    between atoms: _492  and  _494
REMARK  213  A    between atoms: _494  and  _495
REMARK  214  A    between atoms: _494  and  _497
REMARK  215  A    between atoms: _497  and  _498
REMARK  216  A    between atoms: _504  and  _506
REMARK  217  A    between atoms: _506  and  _507
REMARK  218  A    between atoms: _506  and  _509
REMARK  219  A    between atoms: _509  and  _510
REMARK  220  A    between atoms: _514  and  _515
REMARK                            x       y       z     vdW  Elec       q    Type
REMARK                         _______ _______ _______ _____ _____    ______ ____
ROOT
ATOM      1  CG  LYS A   1       5.433  57.899 -39.526  0.00  0.00    -0.000 C 
ENDROOT
BRANCH   1   2
ATOM      2  CB  LYS A   1       4.074  58.511 -39.787  0.00  0.00    +0.025 C 
BRANCH   2   3
ATOM      3  CA  LYS A   1       2.955  57.519 -40.109  0.00  0.00    +0.133 C 
BRANCH   3   4
ATOM      4  N   LYS A   1       3.128  56.840 -41.400  0.00  0.00    -0.239 NA
ATOM      5  H   LYS A   1       3.990  57.007 -41.957  0.00  0.00    +0.142 HD
ENDBRANCH   3   4
BRANCH   3   6
ATOM      6  C   LYS A   1       1.668  58.318 -40.038  0.00  0.00    +0.224 C 
ATOM      7  O   LYS A   1       0.950  58.263 -39.035  0.00  0.00    -0.287 OA
ENDBRANCH   3   6
ENDBRANCH   2   3
ENDBRANCH   1   2
BRANCH   1   8
ATOM      8  CD  LYS A   1       6.496  58.976 -39.310  0.00  0.00    -0.024 C 
BRANCH   8   9
ATOM      9  CE  LYS A   1       6.243  59.776 -38.043  0.00  0.00    -0.086 C 
BRANCH   9  10
ATOM     10  NZ  LYS A   1       7.485  60.494 -37.615  0.00  0.00    +0.380 N 
ATOM     11  HZ1 LYS A   1       7.290  61.034 -36.748  0.00  0.00    -0.089 HD
ATOM     12  HZ2 LYS A   1       8.239  59.801 -37.431  0.00  0.00    -0.089 HD
ATOM     13  HZ3 LYS A   1       7.786  61.144 -38.369  0.00  0.00    -0.089 HD
ENDBRANCH   9  10
ENDBRANCH   8   9
ENDBRANCH   1   8
TORSDOF 7
REMARK  Name = ../refined-set-2016/4ynb/4ynb_pocket.pdb
REMARK  220 active torsions:
REMARK  status: ('A' for Active; 'I' for Inactive)
REMARK    1  A    between atoms: _1  and  _3
REMARK    2  A    between atoms: _3  and  _4
REMARK    3  A    between atoms: _6  and  _8
REMARK    4  A    between atoms: _8  and  _9
REMARK    5  A    between atoms: _12  and  _14
REMARK    6  A    between atoms: _14  and  _15
REMARK    7  A    between atoms: _14  and  _17
REMARK    8  A    between atoms: _17  and  _18
REMARK    9  A    between atoms: _18  and  _19
REMARK   10  A    between atoms: _21  and  _23
REMARK   11  A    between atoms: _23  and  _24
REMARK   12  A    between atoms: _23  and  _26
REMARK   13  A    between atoms: _26  and  _27
REMARK   14  A    between atoms: _27  and  _28
REMARK   15  A    between atoms: _31  and  _33
REMARK   16  A    between atoms: _33  and  _34
REMARK   17  A    between atoms: _33  and  _36
REMARK   18  A    between atoms: _36  and  _37
REMARK   19  A    between atoms: _37  and  _38
REMARK   20  A    between atoms: _41  and  _43
REMARK   21  A    between atoms: _43  and  _44
REMARK   22  A    between atoms: _43  and  _46
REMARK   23  A    between atoms: _46  and  _47
REMARK   24  A    between atoms: _49  and  _51
REMARK   25  A    between atoms: _51  and  _52
REMARK   26  A    between atoms: _51  and  _54
REMARK   27  A    between atoms: _54  and  _55
REMARK   28  A    between atoms: _55  and  _56
REMARK   29  A    between atoms: _56  and  _57
REMARK   30  A    between atoms: _57  and  _58
REMARK   31  A    between atoms: _62  and  _64
REMARK   32  A    between atoms: _64  and  _65
REMARK   33  A    between atoms: _64  and  _67
REMARK   34  A    between atoms: _67  and  _68
REMARK   35  A    between atoms: _71  and  _73
REMARK   36  A    between atoms: _73  and  _74
REMARK   37  A    between atoms: _76  and  _78
REMARK   38  A    between atoms: _78  and  _79
REMARK   39  A    between atoms: _78  and  _81
REMARK   40  A    between atoms: _81  and  _82
REMARK   41  A    between atoms: _88  and  _90
REMARK   42  A    between atoms: _90  and  _91
REMARK   43  A    between atoms: _93  and  _95
REMARK   44  A    between atoms: _95  and  _96
REMARK   45  A    between atoms: _95  and  _98
REMARK   46  A    between atoms: _101  and  _103
REMARK   47  A    between atoms: _103  and  _104
REMARK   48  A    between atoms: _107  and  _109
REMARK   49  A    between atoms: _109  and  _110
REMARK   50  A    between atoms: _112  and  _114
REMARK   51  A    between atoms: _114  and  _115
REMARK   52  A    between atoms: _114  and  _117
REMARK   53  A    between atoms: _117  and  _118
REMARK   54  A    between atoms: _120  and  _122
REMARK   55  A    between atoms: _122  and  _123
REMARK   56  A    between atoms: _122  and  _125
REMARK   57  A    between atoms: _125  and  _126
REMARK   58  A    between atoms: _129  and  _131
REMARK   59  A    between atoms: _131  and  _132
REMARK   60  A    between atoms: _131  and  _134
REMARK   61  A    between atoms: _134  and  _135
REMARK   62  A    between atoms: _140  and  _142
REMARK   63  A    between atoms: _142  and  _143
REMARK   64  A    between atoms: _146  and  _148
REMARK   65  A    between atoms: _148  and  _149
REMARK   66  A    between atoms: _148  and  _151
REMARK   67  A    between atoms: _151  and  _152
REMARK   68  A    between atoms: _154  and  _156
REMARK   69  A    between atoms: _156  and  _157
REMARK   70  A    between atoms: _159  and  _161
REMARK   71  A    between atoms: _161  and  _162
REMARK   72  A    between atoms: _161  and  _164
REMARK   73  A    between atoms: _164  and  _165
REMARK   74  A    between atoms: _168  and  _170
REMARK   75  A    between atoms: _170  and  _171
REMARK   76  A    between atoms: _170  and  _173
REMARK   77  A    between atoms: _173  and  _174
REMARK   78  A    between atoms: _174  and  _175
REMARK   79  A    between atoms: _180  and  _182
REMARK   80  A    between atoms: _182  and  _183
REMARK   81  A    between atoms: _182  and  _185
REMARK   82  A    between atoms: _185  and  _186
REMARK   83  A    between atoms: _192  and  _194
REMARK   84  A    between atoms: _194  and  _195
REMARK   85  A    between atoms: _194  and  _197
REMARK   86  A    between atoms: _200  and  _202
REMARK   87  A    between atoms: _202  and  _203
REMARK   88  A    between atoms: _202  and  _205
REMARK   89  A    between atoms: _205  and  _206
REMARK   90  A    between atoms: _211  and  _213
REMARK   91  A    between atoms: _213  and  _214
REMARK   92  A    between atoms: _213  and  _216
REMARK   93  A    between atoms: _216  and  _217
REMARK   94  A    between atoms: _219  and  _221
REMARK   95  A    between atoms: _221  and  _222
REMARK   96  A    between atoms: _221  and  _224
REMARK   97  A    between atoms: _224  and  _225
REMARK   98  A    between atoms: _225  and  _226
REMARK   99  A    between atoms: _226  and  _227
REMARK  100  A    between atoms: _227  and  _228
REMARK  101  A    between atoms: _232  and  _234
REMARK  102  A    between atoms: _234  and  _235
REMARK  103  A    between atoms: _234  and  _237
REMARK  104  A    between atoms: _237  and  _238
REMARK  105  A    between atoms: _241  and  _243
REMARK  106  A    between atoms: _243  and  _244
REMARK  107  A    between atoms: _247  and  _249
REMARK  108  A    between atoms: _249  and  _250
REMARK  109  A    between atoms: _249  and  _252
REMARK  110  A    between atoms: _255  and  _257
REMARK  111  A    between atoms: _257  and  _258
REMARK  112  A    between atoms: _257  and  _260
REMARK  113  A    between atoms: _260  and  _261
REMARK  114  A    between atoms: _261  and  _262
REMARK  115  A    between atoms: _265  and  _267
REMARK  116  A    between atoms: _267  and  _268
REMARK  117  A    between atoms: _267  and  _270
REMARK  118  A    between atoms: _270  and  _271
REMARK  119  A    between atoms: _271  and  _272
REMARK  120  A    between atoms: _274  and  _276
REMARK  121  A    between atoms: _276  and  _277
REMARK  122  A    between atoms: _276  and  _279
REMARK  123  A    between atoms: _279  and  _280
REMARK  124  A    between atoms: _280  and  _281
REMARK  125  A    between atoms: _284  and  _286
REMARK  126  A    between atoms: _286  and  _287
REMARK  127  A    between atoms: _289  and  _291
REMARK  128  A    between atoms: _291  and  _292
REMARK  129  A    between atoms: _291  and  _294
REMARK  130  A    between atoms: _294  and  _295
REMARK  131  A    between atoms: _295  and  _296
REMARK  132  A    between atoms: _296  and  _297
REMARK  133  A    between atoms: _306  and  _308
REMARK  134  A    between atoms: _308  and  _309
REMARK  135  A    between atoms: _308  and  _311
REMARK  136  A    between atoms: _311  and  _312
REMARK  137  A    between atoms: _314  and  _316
REMARK  138  A    between atoms: _316  and  _317
REMARK  139  A    between atoms: _316  and  _319
REMARK  140  A    between atoms: _319  and  _320
REMARK  141  A    between atoms: _323  and  _325
REMARK  142  A    between atoms: _325  and  _326
REMARK  143  A    between atoms: _325  and  _328
REMARK  144  A    between atoms: _328  and  _329
REMARK  145  A    between atoms: _331  and  _333
REMARK  146  A    between atoms: _333  and  _334
REMARK  147  A    between atoms: _333  and  _336
REMARK  148  A    between atoms: _336  and  _337
REMARK  149  A    between atoms: _340  and  _342
REMARK  150  A    between atoms: _342  and  _343
REMARK  151  A    between atoms: _342  and  _345
REMARK  152  A    between atoms: _345  and  _346
REMARK  153  A    between atoms: _351  and  _353
REMARK  154  A    between atoms: _353  and  _354
REMARK  155  A    between atoms: _357  and  _359
REMARK  156  A    between atoms: _359  and  _360
REMARK  157  A    between atoms: _359  and  _362
REMARK  158  A    between atoms: _362  and  _363
REMARK  159  A    between atoms: _366  and  _368
REMARK  160  A    between atoms: _368  and  _369
REMARK  161  A    between atoms: _368  and  _371
REMARK  162  A    between atoms: _371  and  _372
REMARK  163  A    between atoms: _372  and  _373
REMARK  164  A    between atoms: _373  and  _374
REMARK  165  A    between atoms: _374  and  _375
REMARK  166  A    between atoms: _379  and  _381
REMARK  167  A    between atoms: _381  and  _382
REMARK  168  A    between atoms: _385  and  _387
REMARK  169  A    between atoms: _387  and  _388
REMARK  170  A    between atoms: _390  and  _392
REMARK  171  A    between atoms: _392  and  _393
REMARK  172  A    between atoms: _392  and  _395
REMARK  173  A    between atoms: _395  and  _396
REMARK  174  A    between atoms: _398  and  _400
REMARK  175  A    between atoms: _400  and  _401
REMARK  176  A    between atoms: _400  and  _403
REMARK  177  A    between atoms: _403  and  _404
REMARK  178  A    between atoms: _410  and  _412
REMARK  179  A    between atoms: _412  and  _413
REMARK  180  A    between atoms: _412  and  _415
REMARK  181  A    between atoms: _415  and  _416
REMARK  182  A    between atoms: _419  and  _421
REMARK  183  A    between atoms: _421  and  _422
REMARK  184  A    between atoms: _421  and  _424
REMARK  185  A    between atoms: _424  and  _425
REMARK  186  A    between atoms: _428  and  _430
REMARK  187  A    between atoms: _430  and  _431
REMARK  188  A    between atoms: _430  and  _433
REMARK  189  A    between atoms: _433  and  _434
REMARK  190  A    between atoms: _437  and  _439
REMARK  191  A    between atoms: _439  and  _440
REMARK  192  A    between atoms: _439  and  _442
REMARK  193  A    between atoms: _442  and  _443
REMARK  194  A    between atoms: _446  and  _448
REMARK  195  A    between atoms: _448  and  _449
REMARK  196  A    between atoms: _448  and  _451
REMARK  197  A    between atoms: _451  and  _452
REMARK  198  A    between atoms: _454  and  _456
REMARK  199  A    between atoms: _456  and  _457
REMARK  200  A    between atoms: _460  and  _462
REMARK  201  A    between atoms: _462  and  _463
REMARK  202  A    between atoms: _462  and  _465
REMARK  203  A    between atoms: _465  and  _466
REMARK  204  A    between atoms: _472  and  _474
REMARK  205  A    between atoms: _474  and  _475
REMARK  206  A    between atoms: _474  and  _477
REMARK  207  A    between atoms: _477  and  _478
REMARK  208  A    between atoms: _481  and  _483
REMARK  209  A    between atoms: _483  and  _484
REMARK  210  A    between atoms: _483  and  _486
REMARK  211  A    between atoms: _486  and  _487
REMARK  212  A    between atoms: _492  and  _494
REMARK  213  A    between atoms: _494  and  _495
REMARK  214  A    between atoms: _494  and  _497
REMARK  215  A    between atoms: _497  and  _498
REMARK  216  A    between atoms: _504  and  _506
REMARK  217  A    between atoms: _506  and  _507
REMARK  218  A    between atoms: _506  and  _509
REMARK  219  A    between atoms: _509  and  _510
REMARK  220  A    between atoms: _514  and  _515
REMARK                            x       y       z     vdW  Elec       q    Type
REMARK                         _______ _______ _______ _____ _____    ______ ____
ROOT
ATOM      1  CA  LEU A   1      -1.367  55.504 -38.162  0.00  0.00    +0.133 C 
ENDROOT
BRANCH   1   2
ATOM      2  N   LEU A   1      -1.253  56.090 -39.498  0.00  0.00    -0.239 NA
ATOM      3  H   LEU A   1      -0.313  56.199 -39.930  0.00  0.00    +0.142 HD
ENDBRANCH   1   2
BRANCH   1   4
ATOM      4  C   LEU A   1      -1.894  56.522 -37.149  0.00  0.00    +0.224 C 
ATOM      5  O   LEU A   1      -2.685  56.201 -36.226  0.00  0.00    -0.287 OA
ENDBRANCH   1   4
BRANCH   1   6
ATOM      6  CB  LEU A   1      -0.014  54.940 -37.718  0.00  0.00    +0.025 C 
BRANCH   6   7
ATOM      7  CG  LEU A   1       0.553  53.849 -38.643  0.00  0.00    +0.002 C 
ATOM      8  CD2 LEU A   1       1.958  53.502 -38.209  0.00  0.00    +0.000 C 
ATOM      9  CD1 LEU A   1      -0.337  52.616 -38.652  0.00  0.00    +0.000 C 
ENDBRANCH   6   7
ENDBRANCH   1   6
TORSDOF 4
REMARK  Name = ../refined-set-2016/4ynb/4ynb_pocket.pdb
REMARK  220 active torsions:
REMARK  status: ('A' for Active; 'I' for Inactive)
REMARK    1  A    between atoms: _1  and  _3
REMARK    2  A    between atoms: _3  and  _4
REMARK    3  A    between atoms: _6  and  _8
REMARK    4  A    between atoms: _8  and  _9
REMARK    5  A    between atoms: _12  and  _14
REMARK    6  A    between atoms: _14  and  _15
REMARK    7  A    between atoms: _14  and  _17
REMARK    8  A    between atoms: _17  and  _18
REMARK    9  A    between atoms: _18  and  _19
REMARK   10  A    between atoms: _21  and  _23
REMARK   11  A    between atoms: _23  and  _24
REMARK   12  A    between atoms: _23  and  _26
REMARK   13  A    between atoms: _26  and  _27
REMARK   14  A    between atoms: _27  and  _28
REMARK   15  A    between atoms: _31  and  _33
REMARK   16  A    between atoms: _33  and  _34
REMARK   17  A    between atoms: _33  and  _36
REMARK   18  A    between atoms: _36  and  _37
REMARK   19  A    between atoms: _37  and  _38
REMARK   20  A    between atoms: _41  and  _43
REMARK   21  A    between atoms: _43  and  _44
REMARK   22  A    between atoms: _43  and  _46
REMARK   23  A    between atoms: _46  and  _47
REMARK   24  A    between atoms: _49  and  _51
REMARK   25  A    between atoms: _51  and  _52
REMARK   26  A    between atoms: _51  and  _54
REMARK   27  A    between atoms: _54  and  _55
REMARK   28  A    between atoms: _55  and  _56
REMARK   29  A    between atoms: _56  and  _57
REMARK   30  A    between atoms: _57  and  _58
REMARK   31  A    between atoms: _62  and  _64
REMARK   32  A    between atoms: _64  and  _65
REMARK   33  A    between atoms: _64  and  _67
REMARK   34  A    between atoms: _67  and  _68
REMARK   35  A    between atoms: _71  and  _73
REMARK   36  A    between atoms: _73  and  _74
REMARK   37  A    between atoms: _76  and  _78
REMARK   38  A    between atoms: _78  and  _79
REMARK   39  A    between atoms: _78  and  _81
REMARK   40  A    between atoms: _81  and  _82
REMARK   41  A    between atoms: _88  and  _90
REMARK   42  A    between atoms: _90  and  _91
REMARK   43  A    between atoms: _93  and  _95
REMARK   44  A    between atoms: _95  and  _96
REMARK   45  A    between atoms: _95  and  _98
REMARK   46  A    between atoms: _101  and  _103
REMARK   47  A    between atoms: _103  and  _104
REMARK   48  A    between atoms: _107  and  _109
REMARK   49  A    between atoms: _109  and  _110
REMARK   50  A    between atoms: _112  and  _114
REMARK   51  A    between atoms: _114  and  _115
REMARK   52  A    between atoms: _114  and  _117
REMARK   53  A    between atoms: _117  and  _118
REMARK   54  A    between atoms: _120  and  _122
REMARK   55  A    between atoms: _122  and  _123
REMARK   56  A    between atoms: _122  and  _125
REMARK   57  A    between atoms: _125  and  _126
REMARK   58  A    between atoms: _129  and  _131
REMARK   59  A    between atoms: _131  and  _132
REMARK   60  A    between atoms: _131  and  _134
REMARK   61  A    between atoms: _134  and  _135
REMARK   62  A    between atoms: _140  and  _142
REMARK   63  A    between atoms: _142  and  _143
REMARK   64  A    between atoms: _146  and  _148
REMARK   65  A    between atoms: _148  and  _149
REMARK   66  A    between atoms: _148  and  _151
REMARK   67  A    between atoms: _151  and  _152
REMARK   68  A    between atoms: _154  and  _156
REMARK   69  A    between atoms: _156  and  _157
REMARK   70  A    between atoms: _159  and  _161
REMARK   71  A    between atoms: _161  and  _162
REMARK   72  A    between atoms: _161  and  _164
REMARK   73  A    between atoms: _164  and  _165
REMARK   74  A    between atoms: _168  and  _170
REMARK   75  A    between atoms: _170  and  _171
REMARK   76  A    between atoms: _170  and  _173
REMARK   77  A    between atoms: _173  and  _174
REMARK   78  A    between atoms: _174  and  _175
REMARK   79  A    between atoms: _180  and  _182
REMARK   80  A    between atoms: _182  and  _183
REMARK   81  A    between atoms: _182  and  _185
REMARK   82  A    between atoms: _185  and  _186
REMARK   83  A    between atoms: _192  and  _194
REMARK   84  A    between atoms: _194  and  _195
REMARK   85  A    between atoms: _194  and  _197
REMARK   86  A    between atoms: _200  and  _202
REMARK   87  A    between atoms: _202  and  _203
REMARK   88  A    between atoms: _202  and  _205
REMARK   89  A    between atoms: _205  and  _206
REMARK   90  A    between atoms: _211  and  _213
REMARK   91  A    between atoms: _213  and  _214
REMARK   92  A    between atoms: _213  and  _216
REMARK   93  A    between atoms: _216  and  _217
REMARK   94  A    between atoms: _219  and  _221
REMARK   95  A    between atoms: _221  and  _222
REMARK   96  A    between atoms: _221  and  _224
REMARK   97  A    between atoms: _224  and  _225
REMARK   98  A    between atoms: _225  and  _226
REMARK   99  A    between atoms: _226  and  _227
REMARK  100  A    between atoms: _227  and  _228
REMARK  101  A    between atoms: _232  and  _234
REMARK  102  A    between atoms: _234  and  _235
REMARK  103  A    between atoms: _234  and  _237
REMARK  104  A    between atoms: _237  and  _238
REMARK  105  A    between atoms: _241  and  _243
REMARK  106  A    between atoms: _243  and  _244
REMARK  107  A    between atoms: _247  and  _249
REMARK  108  A    between atoms: _249  and  _250
REMARK  109  A    between atoms: _249  and  _252
REMARK  110  A    between atoms: _255  and  _257
REMARK  111  A    between atoms: _257  and  _258
REMARK  112  A    between atoms: _257  and  _260
REMARK  113  A    between atoms: _260  and  _261
REMARK  114  A    between atoms: _261  and  _262
REMARK  115  A    between atoms: _265  and  _267
REMARK  116  A    between atoms: _267  and  _268
REMARK  117  A    between atoms: _267  and  _270
REMARK  118  A    between atoms: _270  and  _271
REMARK  119  A    between atoms: _271  and  _272
REMARK  120  A    between atoms: _274  and  _276
REMARK  121  A    between atoms: _276  and  _277
REMARK  122  A    between atoms: _276  and  _279
REMARK  123  A    between atoms: _279  and  _280
REMARK  124  A    between atoms: _280  and  _281
REMARK  125  A    between atoms: _284  and  _286
REMARK  126  A    between atoms: _286  and  _287
REMARK  127  A    between atoms: _289  and  _291
REMARK  128  A    between atoms: _291  and  _292
REMARK  129  A    between atoms: _291  and  _294
REMARK  130  A    between atoms: _294  and  _295
REMARK  131  A    between atoms: _295  and  _296
REMARK  132  A    between atoms: _296  and  _297
REMARK  133  A    between atoms: _306  and  _308
REMARK  134  A    between atoms: _308  and  _309
REMARK  135  A    between atoms: _308  and  _311
REMARK  136  A    between atoms: _311  and  _312
REMARK  137  A    between atoms: _314  and  _316
REMARK  138  A    between atoms: _316  and  _317
REMARK  139  A    between atoms: _316  and  _319
REMARK  140  A    between atoms: _319  and  _320
REMARK  141  A    between atoms: _323  and  _325
REMARK  142  A    between atoms: _325  and  _326
REMARK  143  A    between atoms: _325  and  _328
REMARK  144  A    between atoms: _328  and  _329
REMARK  145  A    between atoms: _331  and  _333
REMARK  146  A    between atoms: _333  and  _334
REMARK  147  A    between atoms: _333  and  _336
REMARK  148  A    between atoms: _336  and  _337
REMARK  149  A    between atoms: _340  and  _342
REMARK  150  A    between atoms: _342  and  _343
REMARK  151  A    between atoms: _342  and  _345
REMARK  152  A    between atoms: _345  and  _346
REMARK  153  A    between atoms: _351  and  _353
REMARK  154  A    between atoms: _353  and  _354
REMARK  155  A    between atoms: _357  and  _359
REMARK  156  A    between atoms: _359  and  _360
REMARK  157  A    between atoms: _359  and  _362
REMARK  158  A    between atoms: _362  and  _363
REMARK  159  A    between atoms: _366  and  _368
REMARK  160  A    between atoms: _368  and  _369
REMARK  161  A    between atoms: _368  and  _371
REMARK  162  A    between atoms: _371  and  _372
REMARK  163  A    between atoms: _372  and  _373
REMARK  164  A    between atoms: _373  and  _374
REMARK  165  A    between atoms: _374  and  _375
REMARK  166  A    between atoms: _379  and  _381
REMARK  167  A    between atoms: _381  and  _382
REMARK  168  A    between atoms: _385  and  _387
REMARK  169  A    between atoms: _387  and  _388
REMARK  170  A    between atoms: _390  and  _392
REMARK  171  A    between atoms: _392  and  _393
REMARK  172  A    between atoms: _392  and  _395
REMARK  173  A    between atoms: _395  and  _396
REMARK  174  A    between atoms: _398  and  _400
REMARK  175  A    between atoms: _400  and  _401
REMARK  176  A    between atoms: _400  and  _403
REMARK  177  A    between atoms: _403  and  _404
REMARK  178  A    between atoms: _410  and  _412
REMARK  179  A    between atoms: _412  and  _413
REMARK  180  A    between atoms: _412  and  _415
REMARK  181  A    between atoms: _415  and  _416
REMARK  182  A    between atoms: _419  and  _421
REMARK  183  A    between atoms: _421  and  _422
REMARK  184  A    between atoms: _421  and  _424
REMARK  185  A    between atoms: _424  and  _425
REMARK  186  A    between atoms: _428  and  _430
REMARK  187  A    between atoms: _430  and  _431
REMARK  188  A    between atoms: _430  and  _433
REMARK  189  A    between atoms: _433  and  _434
REMARK  190  A    between atoms: _437  and  _439
REMARK  191  A    between atoms: _439  and  _440
REMARK  192  A    between atoms: _439  and  _442
REMARK  193  A    between atoms: _442  and  _443
REMARK  194  A    between atoms: _446  and  _448
REMARK  195  A    between atoms: _448  and  _449
REMARK  196  A    between atoms: _448  and  _451
REMARK  197  A    between atoms: _451  and  _452
REMARK  198  A    between atoms: _454  and  _456
REMARK  199  A    between atoms: _456  and  _457
REMARK  200  A    between atoms: _460  and  _462
REMARK  201  A    between atoms: _462  and  _463
REMARK  202  A    between atoms: _462  and  _465
REMARK  203  A    between atoms: _465  and  _466
REMARK  204  A    between atoms: _472  and  _474
REMARK  205  A    between atoms: _474  and  _475
REMARK  206  A    between atoms: _474  and  _477
REMARK  207  A    between atoms: _477  and  _478
REMARK  208  A    between atoms: _481  and  _483
REMARK  209  A    between atoms: _483  and  _484
REMARK  210  A    between atoms: _483  and  _486
REMARK  211  A    between atoms: _486  and  _487
REMARK  212  A    between atoms: _492  and  _494
REMARK  213  A    between atoms: _494  and  _495
REMARK  214  A    between atoms: _494  and  _497
REMARK  215  A    between atoms: _497  and  _498
REMARK  216  A    between atoms: _504  and  _506
REMARK  217  A    between atoms: _506  and  _507
REMARK  218  A    between atoms: _506  and  _509
REMARK  219  A    between atoms: _509  and  _510
REMARK  220  A    between atoms: _514  and  _515
REMARK                            x       y       z     vdW  Elec       q    Type
REMARK                         _______ _______ _______ _____ _____    ______ ____
ROOT
ATOM      1  C   GLU A   3       5.581  46.964 -34.422  0.00  0.00    +0.241 C 
ATOM      2  N   MET A   4       6.042  45.753 -34.167  0.00  0.00    -0.297 N 
ATOM      3  H   MET A   4       6.742  45.612 -33.411  0.00  0.00    +0.150 HD
ATOM      4  O   GLU A   3       4.647  47.150 -35.209  0.00  0.00    -0.273 OA
ENDROOT
BRANCH   2   5
ATOM      5  CA  MET A   4       5.566  44.605 -34.951  0.00  0.00    +0.149 C 
BRANCH   5   6
ATOM      6  C   MET A   4       5.062  43.413 -34.137  0.00  0.00    +0.241 C 
ATOM      7  N   GLU A   5       4.971  43.567 -32.819  0.00  0.00    -0.297 N 
ATOM      8  H   GLU A   5       5.139  44.505 -32.402  0.00  0.00    +0.150 HD
ATOM      9  O   MET A   4       4.789  42.346 -34.711  0.00  0.00    -0.273 OA
BRANCH   7  10
ATOM     10  CA  GLU A   5       4.638  42.440 -31.942  0.00  0.00    +0.149 C 
BRANCH  10  11
ATOM     11  C   GLU A   5       3.650  42.738 -30.819  0.00  0.00    +0.241 C 
ATOM     12  O   GLU A   5       3.024  41.815 -30.267  0.00  0.00    -0.273 OA
ATOM     13  N   GLY A   6       3.526  43.981 -30.410  0.00  0.00    -0.296 N 
ATOM     14  H   GLY A   6       3.926  44.760 -30.971  0.00  0.00    +0.150 HD
BRANCH  13  15
ATOM     15  CA  GLY A   6       2.826  44.256 -29.168  0.00  0.00    +0.163 C 
BRANCH  15  16
ATOM     16  C   GLY A   6       1.354  43.834 -29.186  0.00  0.00    +0.229 C 
ATOM     17  O   GLY A   6       0.830  43.285 -28.206  0.00  0.00    -0.286 OA
ENDBRANCH  15  16
ENDBRANCH  13  15
ENDBRANCH  10  11
BRANCH  10  18
ATOM     18  CB  GLU A   5       5.901  41.869 -31.297  0.00  0.00    +0.041 C 
BRANCH  18  19
ATOM     19  CG  GLU A   5       6.951  41.345 -32.262  0.00  0.00    +0.116 C 
BRANCH  19  20
ATOM     20  CD  GLU A   5       7.822  42.450 -32.870  0.00  0.00    +0.365 C 
ATOM     21  OE2 GLU A   5       7.886  43.567 -32.298  0.00  0.00    -0.246 OA
ATOM     22  OE1 GLU A   5       8.485  42.184 -33.892  0.00  0.00    -0.246 OA
ENDBRANCH  19  20
ENDBRANCH  18  19
ENDBRANCH  10  18
ENDBRANCH   7  10
ENDBRANCH   5   6
BRANCH   5  23
ATOM     23  CB  MET A   4       6.675  44.166 -35.909  0.00  0.00    +0.041 C 
BRANCH  23  24
ATOM     24  CG  MET A   4       7.114  45.309 -36.839  0.00  0.00    +0.060 C 
BRANCH  24  25
ATOM     25  SD  MET A   4       8.432  44.927 -37.996  0.00  0.00    -0.139 S 
ATOM     26  CE  MET A   4       7.634  43.778 -39.079  0.00  0.00    +0.069 C 
ENDBRANCH  24  25
ENDBRANCH  23  24
ENDBRANCH   5  23
ENDBRANCH   2   5
BRANCH   1  27
ATOM     27  CA  GLU A   3       6.270  48.166 -33.765  0.00  0.00    +0.149 C 
BRANCH  27  30
ATOM     28  C   VAL A   2       5.769  50.536 -33.787  0.00  0.00    +0.241 C 
ATOM     29  O   VAL A   2       6.934  50.835 -33.532  0.00  0.00    -0.273 OA
ATOM     30  N   GLU A   3       5.352  49.279 -33.864  0.00  0.00    -0.297 N 
ATOM     31  H   GLU A   3       4.338  49.089 -33.999  0.00  0.00    +0.150 HD
BRANCH  28  32
ATOM     32  CA  VAL A   2       4.700  51.620 -34.005  0.00  0.00    +0.148 C 
BRANCH  32  35
ATOM     33  C   ALA A   1       3.930  53.257 -32.352  0.00  0.00    +0.238 C 
ATOM     34  O   ALA A   1       2.759  52.824 -32.327  0.00  0.00    -0.274 OA
ATOM     35  N   VAL A   2       4.903  52.744 -33.098  0.00  0.00    -0.297 N 
ATOM     36  H   VAL A   2       5.852  53.163 -33.032  0.00  0.00    +0.150 HD
BRANCH  33  37
ATOM     37  CA  ALA A   1       4.323  54.438 -31.500  0.00  0.00    +0.145 C 
ATOM     38  CB  ALA A   1       5.095  53.961 -30.289  0.00  0.00    +0.028 C 
BRANCH  37  39
ATOM     39  N   ALA A   1       3.135  55.172 -31.091  0.00  0.00    -0.238 NA
ATOM     40  H   ALA A   1       2.242  54.655 -30.957  0.00  0.00    +0.142 HD
ENDBRANCH  37  39
ENDBRANCH  33  37
ENDBRANCH  32  35
BRANCH  32  41
ATOM     41  CB  VAL A   2       4.660  52.072 -35.487  0.00  0.00    +0.027 C 
ATOM     42  CG2 VAL A   2       6.008  52.606 -35.960  0.00  0.00    +0.002 C 
ATOM     43  CG1 VAL A   2       4.199  50.938 -36.365  0.00  0.00    +0.002 C 
ENDBRANCH  32  41
ENDBRANCH  28  32
ENDBRANCH  27  30
BRANCH  27  44
ATOM     44  CB  GLU A   3       6.739  47.957 -32.301  0.00  0.00    +0.041 C 
BRANCH  44  45
ATOM     45  CG  GLU A   3       5.740  48.277 -31.177  0.00  0.00    +0.116 C 
BRANCH  45  46
ATOM     46  CD  GLU A   3       4.845  47.101 -30.802  0.00  0.00    +0.365 C 
ATOM     47  OE2 GLU A   3       4.624  46.857 -29.580  0.00  0.00    -0.246 OA
ATOM     48  OE1 GLU A   3       4.324  46.433 -31.727  0.00  0.00    -0.246 OA
ENDBRANCH  45  46
ENDBRANCH  44  45
ENDBRANCH  27  44
ENDBRANCH   1  27
TORSDOF 22
REMARK  Name = ../refined-set-2016/4ynb/4ynb_pocket.pdb
REMARK  220 active torsions:
REMARK  status: ('A' for Active; 'I' for Inactive)
REMARK    1  A    between atoms: _1  and  _3
REMARK    2  A    between atoms: _3  and  _4
REMARK    3  A    between atoms: _6  and  _8
REMARK    4  A    between atoms: _8  and  _9
REMARK    5  A    between atoms: _12  and  _14
REMARK    6  A    between atoms: _14  and  _15
REMARK    7  A    between atoms: _14  and  _17
REMARK    8  A    between atoms: _17  and  _18
REMARK    9  A    between atoms: _18  and  _19
REMARK   10  A    between atoms: _21  and  _23
REMARK   11  A    between atoms: _23  and  _24
REMARK   12  A    between atoms: _23  and  _26
REMARK   13  A    between atoms: _26  and  _27
REMARK   14  A    between atoms: _27  and  _28
REMARK   15  A    between atoms: _31  and  _33
REMARK   16  A    between atoms: _33  and  _34
REMARK   17  A    between atoms: _33  and  _36
REMARK   18  A    between atoms: _36  and  _37
REMARK   19  A    between atoms: _37  and  _38
REMARK   20  A    between atoms: _41  and  _43
REMARK   21  A    between atoms: _43  and  _44
REMARK   22  A    between atoms: _43  and  _46
REMARK   23  A    between atoms: _46  and  _47
REMARK   24  A    between atoms: _49  and  _51
REMARK   25  A    between atoms: _51  and  _52
REMARK   26  A    between atoms: _51  and  _54
REMARK   27  A    between atoms: _54  and  _55
REMARK   28  A    between atoms: _55  and  _56
REMARK   29  A    between atoms: _56  and  _57
REMARK   30  A    between atoms: _57  and  _58
REMARK   31  A    between atoms: _62  and  _64
REMARK   32  A    between atoms: _64  and  _65
REMARK   33  A    between atoms: _64  and  _67
REMARK   34  A    between atoms: _67  and  _68
REMARK   35  A    between atoms: _71  and  _73
REMARK   36  A    between atoms: _73  and  _74
REMARK   37  A    between atoms: _76  and  _78
REMARK   38  A    between atoms: _78  and  _79
REMARK   39  A    between atoms: _78  and  _81
REMARK   40  A    between atoms: _81  and  _82
REMARK   41  A    between atoms: _88  and  _90
REMARK   42  A    between atoms: _90  and  _91
REMARK   43  A    between atoms: _93  and  _95
REMARK   44  A    between atoms: _95  and  _96
REMARK   45  A    between atoms: _95  and  _98
REMARK   46  A    between atoms: _101  and  _103
REMARK   47  A    between atoms: _103  and  _104
REMARK   48  A    between atoms: _107  and  _109
REMARK   49  A    between atoms: _109  and  _110
REMARK   50  A    between atoms: _112  and  _114
REMARK   51  A    between atoms: _114  and  _115
REMARK   52  A    between atoms: _114  and  _117
REMARK   53  A    between atoms: _117  and  _118
REMARK   54  A    between atoms: _120  and  _122
REMARK   55  A    between atoms: _122  and  _123
REMARK   56  A    between atoms: _122  and  _125
REMARK   57  A    between atoms: _125  and  _126
REMARK   58  A    between atoms: _129  and  _131
REMARK   59  A    between atoms: _131  and  _132
REMARK   60  A    between atoms: _131  and  _134
REMARK   61  A    between atoms: _134  and  _135
REMARK   62  A    between atoms: _140  and  _142
REMARK   63  A    between atoms: _142  and  _143
REMARK   64  A    between atoms: _146  and  _148
REMARK   65  A    between atoms: _148  and  _149
REMARK   66  A    between atoms: _148  and  _151
REMARK   67  A    between atoms: _151  and  _152
REMARK   68  A    between atoms: _154  and  _156
REMARK   69  A    between atoms: _156  and  _157
REMARK   70  A    between atoms: _159  and  _161
REMARK   71  A    between atoms: _161  and  _162
REMARK   72  A    between atoms: _161  and  _164
REMARK   73  A    between atoms: _164  and  _165
REMARK   74  A    between atoms: _168  and  _170
REMARK   75  A    between atoms: _170  and  _171
REMARK   76  A    between atoms: _170  and  _173
REMARK   77  A    between atoms: _173  and  _174
REMARK   78  A    between atoms: _174  and  _175
REMARK   79  A    between atoms: _180  and  _182
REMARK   80  A    between atoms: _182  and  _183
REMARK   81  A    between atoms: _182  and  _185
REMARK   82  A    between atoms: _185  and  _186
REMARK   83  A    between atoms: _192  and  _194
REMARK   84  A    between atoms: _194  and  _195
REMARK   85  A    between atoms: _194  and  _197
REMARK   86  A    between atoms: _200  and  _202
REMARK   87  A    between atoms: _202  and  _203
REMARK   88  A    between atoms: _202  and  _205
REMARK   89  A    between atoms: _205  and  _206
REMARK   90  A    between atoms: _211  and  _213
REMARK   91  A    between atoms: _213  and  _214
REMARK   92  A    between atoms: _213  and  _216
REMARK   93  A    between atoms: _216  and  _217
REMARK   94  A    between atoms: _219  and  _221
REMARK   95  A    between atoms: _221  and  _222
REMARK   96  A    between atoms: _221  and  _224
REMARK   97  A    between atoms: _224  and  _225
REMARK   98  A    between atoms: _225  and  _226
REMARK   99  A    between atoms: _226  and  _227
REMARK  100  A    between atoms: _227  and  _228
REMARK  101  A    between atoms: _232  and  _234
REMARK  102  A    between atoms: _234  and  _235
REMARK  103  A    between atoms: _234  and  _237
REMARK  104  A    between atoms: _237  and  _238
REMARK  105  A    between atoms: _241  and  _243
REMARK  106  A    between atoms: _243  and  _244
REMARK  107  A    between atoms: _247  and  _249
REMARK  108  A    between atoms: _249  and  _250
REMARK  109  A    between atoms: _249  and  _252
REMARK  110  A    between atoms: _255  and  _257
REMARK  111  A    between atoms: _257  and  _258
REMARK  112  A    between atoms: _257  and  _260
REMARK  113  A    between atoms: _260  and  _261
REMARK  114  A    between atoms: _261  and  _262
REMARK  115  A    between atoms: _265  and  _267
REMARK  116  A    between atoms: _267  and  _268
REMARK  117  A    between atoms: _267  and  _270
REMARK  118  A    between atoms: _270  and  _271
REMARK  119  A    between atoms: _271  and  _272
REMARK  120  A    between atoms: _274  and  _276
REMARK  121  A    between atoms: _276  and  _277
REMARK  122  A    between atoms: _276  and  _279
REMARK  123  A    between atoms: _279  and  _280
REMARK  124  A    between atoms: _280  and  _281
REMARK  125  A    between atoms: _284  and  _286
REMARK  126  A    between atoms: _286  and  _287
REMARK  127  A    between atoms: _289  and  _291
REMARK  128  A    between atoms: _291  and  _292
REMARK  129  A    between atoms: _291  and  _294
REMARK  130  A    between atoms: _294  and  _295
REMARK  131  A    between atoms: _295  and  _296
REMARK  132  A    between atoms: _296  and  _297
REMARK  133  A    between atoms: _306  and  _308
REMARK  134  A    between atoms: _308  and  _309
REMARK  135  A    between atoms: _308  and  _311
REMARK  136  A    between atoms: _311  and  _312
REMARK  137  A    between atoms: _314  and  _316
REMARK  138  A    between atoms: _316  and  _317
REMARK  139  A    between atoms: _316  and  _319
REMARK  140  A    between atoms: _319  and  _320
REMARK  141  A    between atoms: _323  and  _325
REMARK  142  A    between atoms: _325  and  _326
REMARK  143  A    between atoms: _325  and  _328
REMARK  144  A    between atoms: _328  and  _329
REMARK  145  A    between atoms: _331  and  _333
REMARK  146  A    between atoms: _333  and  _334
REMARK  147  A    between atoms: _333  and  _336
REMARK  148  A    between atoms: _336  and  _337
REMARK  149  A    between atoms: _340  and  _342
REMARK  150  A    between atoms: _342  and  _343
REMARK  151  A    between atoms: _342  and  _345
REMARK  152  A    between atoms: _345  and  _346
REMARK  153  A    between atoms: _351  and  _353
REMARK  154  A    between atoms: _353  and  _354
REMARK  155  A    between atoms: _357  and  _359
REMARK  156  A    between atoms: _359  and  _360
REMARK  157  A    between atoms: _359  and  _362
REMARK  158  A    between atoms: _362  and  _363
REMARK  159  A    between atoms: _366  and  _368
REMARK  160  A    between atoms: _368  and  _369
REMARK  161  A    between atoms: _368  and  _371
REMARK  162  A    between atoms: _371  and  _372
REMARK  163  A    between atoms: _372  and  _373
REMARK  164  A    between atoms: _373  and  _374
REMARK  165  A    between atoms: _374  and  _375
REMARK  166  A    between atoms: _379  and  _381
REMARK  167  A    between atoms: _381  and  _382
REMARK  168  A    between atoms: _385  and  _387
REMARK  169  A    between atoms: _387  and  _388
REMARK  170  A    between atoms: _390  and  _392
REMARK  171  A    between atoms: _392  and  _393
REMARK  172  A    between atoms: _392  and  _395
REMARK  173  A    between atoms: _395  and  _396
REMARK  174  A    between atoms: _398  and  _400
REMARK  175  A    between atoms: _400  and  _401
REMARK  176  A    between atoms: _400  and  _403
REMARK  177  A    between atoms: _403  and  _404
REMARK  178  A    between atoms: _410  and  _412
REMARK  179  A    between atoms: _412  and  _413
REMARK  180  A    between atoms: _412  and  _415
REMARK  181  A    between atoms: _415  and  _416
REMARK  182  A    between atoms: _419  and  _421
REMARK  183  A    between atoms: _421  and  _422
REMARK  184  A    between atoms: _421  and  _424
REMARK  185  A    between atoms: _424  and  _425
REMARK  186  A    between atoms: _428  and  _430
REMARK  187  A    between atoms: _430  and  _431
REMARK  188  A    between atoms: _430  and  _433
REMARK  189  A    between atoms: _433  and  _434
REMARK  190  A    between atoms: _437  and  _439
REMARK  191  A    between atoms: _439  and  _440
REMARK  192  A    between atoms: _439  and  _442
REMARK  193  A    between atoms: _442  and  _443
REMARK  194  A    between atoms: _446  and  _448
REMARK  195  A    between atoms: _448  and  _449
REMARK  196  A    between atoms: _448  and  _451
REMARK  197  A    between atoms: _451  and  _452
REMARK  198  A    between atoms: _454  and  _456
REMARK  199  A    between atoms: _456  and  _457
REMARK  200  A    between atoms: _460  and  _462
REMARK  201  A    between atoms: _462  and  _463
REMARK  202  A    between atoms: _462  and  _465
REMARK  203  A    between atoms: _465  and  _466
REMARK  204  A    between atoms: _472  and  _474
REMARK  205  A    between atoms: _474  and  _475
REMARK  206  A    between atoms: _474  and  _477
REMARK  207  A    between atoms: _477  and  _478
REMARK  208  A    between atoms: _481  and  _483
REMARK  209  A    between atoms: _483  and  _484
REMARK  210  A    between atoms: _483  and  _486
REMARK  211  A    between atoms: _486  and  _487
REMARK  212  A    between atoms: _492  and  _494
REMARK  213  A    between atoms: _494  and  _495
REMARK  214  A    between atoms: _494  and  _497
REMARK  215  A    between atoms: _497  and  _498
REMARK  216  A    between atoms: _504  and  _506
REMARK  217  A    between atoms: _506  and  _507
REMARK  218  A    between atoms: _506  and  _509
REMARK  219  A    between atoms: _509  and  _510
REMARK  220  A    between atoms: _514  and  _515
REMARK                            x       y       z     vdW  Elec       q    Type
REMARK                         _______ _______ _______ _____ _____    ______ ____
ROOT
ATOM      1  CA  SER A   4      14.633  53.773 -31.519  0.00  0.00    +0.178 C 
ENDROOT
BRANCH   1   2
ATOM      2  C   SER A   4      14.755  54.638 -32.775  0.00  0.00    +0.243 C 
ATOM      3  N   ASP A   5      13.631  55.171 -33.254  0.00  0.00    -0.296 N 
ATOM      4  H   ASP A   5      12.753  55.079 -32.704  0.00  0.00    +0.150 HD
ATOM      5  O   SER A   4      15.869  54.808 -33.314  0.00  0.00    -0.273 OA
BRANCH   3   6
ATOM      6  CA  ASP A   5      13.600  55.885 -34.539  0.00  0.00    +0.160 C 
BRANCH   6   7
ATOM      7  C   ASP A   5      12.284  56.620 -34.640  0.00  0.00    +0.241 C 
ATOM      8  O   ASP A   5      11.461  56.492 -33.735  0.00  0.00    -0.273 OA
ATOM      9  N   ASN A   6      12.079  57.375 -35.721  0.00  0.00    -0.297 N 
ATOM     10  H   ASN A   6      12.811  57.397 -36.459  0.00  0.00    +0.150 HD
BRANCH   9  11
ATOM     11  CA  ASN A   6      10.862  58.176 -35.912  0.00  0.00    +0.158 C 
BRANCH  11  12
ATOM     12  C   ASN A   6       9.955  57.641 -37.023  0.00  0.00    +0.241 C 
ATOM     13  N   ALA A   7      10.184  56.393 -37.432  0.00  0.00    -0.297 N 
ATOM     14  H   ALA A   7      11.045  55.912 -37.101  0.00  0.00    +0.150 HD
ATOM     15  O   ASN A   6       9.091  58.371 -37.535  0.00  0.00    -0.273 OA
BRANCH  13  16
ATOM     16  CA  ALA A   7       9.275  55.665 -38.330  0.00  0.00    +0.149 C 
ATOM     17  CB  ALA A   7       7.915  55.488 -37.665  0.00  0.00    +0.031 C 
BRANCH  16  18
ATOM     18  C   ALA A   7       9.128  56.358 -39.688  0.00  0.00    +0.241 C 
ATOM     19  N   ASP A   8      10.194  57.035 -40.109  0.00  0.00    -0.298 N 
ATOM     20  H   ASP A   8      11.062  57.009 -39.537  0.00  0.00    +0.150 HD
ATOM     21  O   ALA A   7       8.092  56.237 -40.353  0.00  0.00    -0.273 OA
BRANCH  19  22
ATOM     22  CA  ASP A   8      10.188  57.803 -41.329  0.00  0.00    +0.148 C 
BRANCH  22  23
ATOM     23  C   ASP A   8      11.268  57.259 -42.236  0.00  0.00    +0.227 C 
ATOM     24  O   ASP A   8      11.823  56.201 -41.992  0.00  0.00    -0.286 OA
ENDBRANCH  22  23
BRANCH  22  25
ATOM     25  CB  ASP A   8      10.406  59.283 -41.001  0.00  0.00    +0.142 C 
BRANCH  25  26
ATOM     26  CG  ASP A   8      11.694  59.549 -40.203  0.00  0.00    +0.367 C 
ATOM     27  OD2 ASP A   8      11.849  60.668 -39.690  0.00  0.00    -0.246 OA
ATOM     28  OD1 ASP A   8      12.539  58.640 -40.062  0.00  0.00    -0.246 OA
ENDBRANCH  25  26
ENDBRANCH  22  25
ENDBRANCH  19  22
ENDBRANCH  16  18
ENDBRANCH  13  16
ENDBRANCH  11  12
BRANCH  11  29
ATOM     29  CB  ASN A   6      11.237  59.634 -36.235  0.00  0.00    +0.114 C 
BRANCH  29  30
ATOM     30  CG  ASN A   6      12.001  60.288 -35.117  0.00  0.00    +0.222 C 
ATOM     31  ND2 ASN A   6      11.431  60.269 -33.968  0.00  0.00    -0.329 N 
ATOM     32 HD21 ASN A   6      11.901  60.702 -33.147  0.00  0.00    +0.145 HD
ATOM     33 HD22 ASN A   6      10.499  59.821 -33.857  0.00  0.00    +0.145 HD
ATOM     34  OD1 ASN A   6      13.096  60.804 -35.294  0.00  0.00    -0.275 OA
ENDBRANCH  29  30
ENDBRANCH  11  29
ENDBRANCH   9  11
ENDBRANCH   6   7
BRANCH   6  35
ATOM     35  CB  ASP A   5      13.749  54.904 -35.702  0.00  0.00    +0.143 C 
BRANCH  35  36
ATOM     36  CG  ASP A   5      12.691  53.819 -35.693  0.00  0.00    +0.367 C 
ATOM     37  OD2 ASP A   5      12.929  52.752 -35.056  0.00  0.00    -0.246 OA
ATOM     38  OD1 ASP A   5      11.626  54.042 -36.331  0.00  0.00    -0.246 OA
ENDBRANCH  35  36
ENDBRANCH   6  35
ENDBRANCH   3   6
ENDBRANCH   1   2
BRANCH   1  41
ATOM     39  C   ILE A   3      13.351  54.593 -29.579  0.00  0.00    +0.241 C 
ATOM     40  O   ILE A   3      14.349  54.981 -28.988  0.00  0.00    -0.273 OA
ATOM     41  N   SER A   4      13.395  53.983 -30.766  0.00  0.00    -0.295 N 
ATOM     42  H   SER A   4      12.504  53.639 -31.177  0.00  0.00    +0.150 HD
BRANCH  39  43
ATOM     43  CA  ILE A   3      11.946  54.800 -28.954  0.00  0.00    +0.149 C 
BRANCH  43  45
ATOM     44  C   SER A   2      12.019  53.038 -27.306  0.00  0.00    +0.243 C 
ATOM     45  N   ILE A   3      11.890  54.318 -27.597  0.00  0.00    -0.297 N 
ATOM     46  H   ILE A   3      11.744  54.999 -26.825  0.00  0.00    +0.150 HD
ATOM     47  O   SER A   2      12.307  52.193 -28.145  0.00  0.00    -0.273 OA
BRANCH  44  48
ATOM     48  CA  SER A   2      11.810  52.665 -25.865  0.00  0.00    +0.178 C 
BRANCH  48  51
ATOM     49  C   ARG A   1       9.745  51.469 -25.228  0.00  0.00    +0.238 C 
ATOM     50  O   ARG A   1       9.348  52.375 -24.497  0.00  0.00    -0.274 OA
ATOM     51  N   SER A   2      10.940  51.475 -25.811  0.00  0.00    -0.295 N 
ATOM     52  H   SER A   2      11.279  50.596 -26.251  0.00  0.00    +0.150 HD
BRANCH  49  53
ATOM     53  CA  ARG A   1       8.876  50.220 -25.481  0.00  0.00    +0.145 C 
BRANCH  53  54
ATOM     54  N   ARG A   1       7.957  49.966 -24.399  0.00  0.00    -0.238 NA
ATOM     55  H   ARG A   1       7.405  50.754 -24.005  0.00  0.00    +0.142 HD
ENDBRANCH  53  54
BRANCH  53  56
ATOM     56  CB  ARG A   1       8.112  50.355 -26.799  0.00  0.00    +0.030 C 
BRANCH  56  57
ATOM     57  CG  ARG A   1       7.268  49.133 -27.228  0.00  0.00    +0.045 C 
BRANCH  57  58
ATOM     58  CD  ARG A   1       8.118  47.997 -27.753  0.00  0.00    +0.174 C 
BRANCH  58  59
ATOM     59  NE  ARG A   1       7.342  46.978 -28.476  0.00  0.00    -0.265 N 
ATOM     60  HE  ARG A   1       6.324  46.913 -28.275  0.00  0.00    +0.259 HD
ATOM     61  CZ  ARG A   1       7.856  46.125 -29.377  0.00  0.00    +0.342 C 
ATOM     62  NH2 ARG A   1       9.159  46.122 -29.674  0.00  0.00    -0.292 N 
ATOM     63 HH21 ARG A   1       9.801  46.791 -29.203  0.00  0.00    +0.255 HD
ATOM     64 HH22 ARG A   1       9.531  45.451 -30.376  0.00  0.00    +0.255 HD
ATOM     65  NH1 ARG A   1       7.081  45.232 -29.990  0.00  0.00    -0.292 N 
ATOM     66 HH11 ARG A   1       6.065  45.189 -29.773  0.00  0.00    +0.255 HD
ATOM     67 HH12 ARG A   1       7.492  44.577 -30.686  0.00  0.00    +0.255 HD
ENDBRANCH  58  59
ENDBRANCH  57  58
ENDBRANCH  56  57
ENDBRANCH  53  56
ENDBRANCH  49  53
ENDBRANCH  48  51
BRANCH  48  68
ATOM     68  CB  SER A   2      13.164  52.415 -25.189  0.00  0.00    +0.166 C 
BRANCH  68  69
ATOM     69  OG  SER A   2      14.050  53.524 -25.370  0.00  0.00    -0.380 OA
ATOM     70  H   SER A   2      13.645  54.336 -24.974  0.00  0.00    +0.211 HD
ENDBRANCH  68  69
ENDBRANCH  48  68
ENDBRANCH  44  48
ENDBRANCH  43  45
BRANCH  43  71
ATOM     71  CB  ILE A   3      11.547  56.287 -29.009  0.00  0.00    +0.027 C 
ATOM     72  CG2 ILE A   3      11.731  56.844 -30.418  0.00  0.00    +0.002 C 
BRANCH  71  73
ATOM     73  CG1 ILE A   3      10.108  56.503 -28.507  0.00  0.00    +0.002 C 
ATOM     74  CD1 ILE A   3       9.040  55.662 -29.200  0.00  0.00    +0.000 C 
ENDBRANCH  71  73
ENDBRANCH  43  71
ENDBRANCH  39  43
ENDBRANCH   1  41
BRANCH   1  75
ATOM     75  CB  SER A   4      14.780  52.319 -31.929  0.00  0.00    +0.166 C 
BRANCH  75  76
ATOM     76  OG  SER A   4      13.687  51.854 -32.702  0.00  0.00    -0.380 OA
ATOM     77  H   SER A   4      13.614  52.396 -33.527  0.00  0.00    +0.211 HD
ENDBRANCH  75  76
ENDBRANCH   1  75
TORSDOF 32
REMARK  Name = ../refined-set-2016/4ynb/4ynb_pocket.pdb
REMARK  220 active torsions:
REMARK  status: ('A' for Active; 'I' for Inactive)
REMARK    1  A    between atoms: _1  and  _3
REMARK    2  A    between atoms: _3  and  _4
REMARK    3  A    between atoms: _6  and  _8
REMARK    4  A    between atoms: _8  and  _9
REMARK    5  A    between atoms: _12  and  _14
REMARK    6  A    between atoms: _14  and  _15
REMARK    7  A    between atoms: _14  and  _17
REMARK    8  A    between atoms: _17  and  _18
REMARK    9  A    between atoms: _18  and  _19
REMARK   10  A    between atoms: _21  and  _23
REMARK   11  A    between atoms: _23  and  _24
REMARK   12  A    between atoms: _23  and  _26
REMARK   13  A    between atoms: _26  and  _27
REMARK   14  A    between atoms: _27  and  _28
REMARK   15  A    between atoms: _31  and  _33
REMARK   16  A    between atoms: _33  and  _34
REMARK   17  A    between atoms: _33  and  _36
REMARK   18  A    between atoms: _36  and  _37
REMARK   19  A    between atoms: _37  and  _38
REMARK   20  A    between atoms: _41  and  _43
REMARK   21  A    between atoms: _43  and  _44
REMARK   22  A    between atoms: _43  and  _46
REMARK   23  A    between atoms: _46  and  _47
REMARK   24  A    between atoms: _49  and  _51
REMARK   25  A    between atoms: _51  and  _52
REMARK   26  A    between atoms: _51  and  _54
REMARK   27  A    between atoms: _54  and  _55
REMARK   28  A    between atoms: _55  and  _56
REMARK   29  A    between atoms: _56  and  _57
REMARK   30  A    between atoms: _57  and  _58
REMARK   31  A    between atoms: _62  and  _64
REMARK   32  A    between atoms: _64  and  _65
REMARK   33  A    between atoms: _64  and  _67
REMARK   34  A    between atoms: _67  and  _68
REMARK   35  A    between atoms: _71  and  _73
REMARK   36  A    between atoms: _73  and  _74
REMARK   37  A    between atoms: _76  and  _78
REMARK   38  A    between atoms: _78  and  _79
REMARK   39  A    between atoms: _78  and  _81
REMARK   40  A    between atoms: _81  and  _82
REMARK   41  A    between atoms: _88  and  _90
REMARK   42  A    between atoms: _90  and  _91
REMARK   43  A    between atoms: _93  and  _95
REMARK   44  A    between atoms: _95  and  _96
REMARK   45  A    between atoms: _95  and  _98
REMARK   46  A    between atoms: _101  and  _103
REMARK   47  A    between atoms: _103  and  _104
REMARK   48  A    between atoms: _107  and  _109
REMARK   49  A    between atoms: _109  and  _110
REMARK   50  A    between atoms: _112  and  _114
REMARK   51  A    between atoms: _114  and  _115
REMARK   52  A    between atoms: _114  and  _117
REMARK   53  A    between atoms: _117  and  _118
REMARK   54  A    between atoms: _120  and  _122
REMARK   55  A    between atoms: _122  and  _123
REMARK   56  A    between atoms: _122  and  _125
REMARK   57  A    between atoms: _125  and  _126
REMARK   58  A    between atoms: _129  and  _131
REMARK   59  A    between atoms: _131  and  _132
REMARK   60  A    between atoms: _131  and  _134
REMARK   61  A    between atoms: _134  and  _135
REMARK   62  A    between atoms: _140  and  _142
REMARK   63  A    between atoms: _142  and  _143
REMARK   64  A    between atoms: _146  and  _148
REMARK   65  A    between atoms: _148  and  _149
REMARK   66  A    between atoms: _148  and  _151
REMARK   67  A    between atoms: _151  and  _152
REMARK   68  A    between atoms: _154  and  _156
REMARK   69  A    between atoms: _156  and  _157
REMARK   70  A    between atoms: _159  and  _161
REMARK   71  A    between atoms: _161  and  _162
REMARK   72  A    between atoms: _161  and  _164
REMARK   73  A    between atoms: _164  and  _165
REMARK   74  A    between atoms: _168  and  _170
REMARK   75  A    between atoms: _170  and  _171
REMARK   76  A    between atoms: _170  and  _173
REMARK   77  A    between atoms: _173  and  _174
REMARK   78  A    between atoms: _174  and  _175
REMARK   79  A    between atoms: _180  and  _182
REMARK   80  A    between atoms: _182  and  _183
REMARK   81  A    between atoms: _182  and  _185
REMARK   82  A    between atoms: _185  and  _186
REMARK   83  A    between atoms: _192  and  _194
REMARK   84  A    between atoms: _194  and  _195
REMARK   85  A    between atoms: _194  and  _197
REMARK   86  A    between atoms: _200  and  _202
REMARK   87  A    between atoms: _202  and  _203
REMARK   88  A    between atoms: _202  and  _205
REMARK   89  A    between atoms: _205  and  _206
REMARK   90  A    between atoms: _211  and  _213
REMARK   91  A    between atoms: _213  and  _214
REMARK   92  A    between atoms: _213  and  _216
REMARK   93  A    between atoms: _216  and  _217
REMARK   94  A    between atoms: _219  and  _221
REMARK   95  A    between atoms: _221  and  _222
REMARK   96  A    between atoms: _221  and  _224
REMARK   97  A    between atoms: _224  and  _225
REMARK   98  A    between atoms: _225  and  _226
REMARK   99  A    between atoms: _226  and  _227
REMARK  100  A    between atoms: _227  and  _228
REMARK  101  A    between atoms: _232  and  _234
REMARK  102  A    between atoms: _234  and  _235
REMARK  103  A    between atoms: _234  and  _237
REMARK  104  A    between atoms: _237  and  _238
REMARK  105  A    between atoms: _241  and  _243
REMARK  106  A    between atoms: _243  and  _244
REMARK  107  A    between atoms: _247  and  _249
REMARK  108  A    between atoms: _249  and  _250
REMARK  109  A    between atoms: _249  and  _252
REMARK  110  A    between atoms: _255  and  _257
REMARK  111  A    between atoms: _257  and  _258
REMARK  112  A    between atoms: _257  and  _260
REMARK  113  A    between atoms: _260  and  _261
REMARK  114  A    between atoms: _261  and  _262
REMARK  115  A    between atoms: _265  and  _267
REMARK  116  A    between atoms: _267  and  _268
REMARK  117  A    between atoms: _267  and  _270
REMARK  118  A    between atoms: _270  and  _271
REMARK  119  A    between atoms: _271  and  _272
REMARK  120  A    between atoms: _274  and  _276
REMARK  121  A    between atoms: _276  and  _277
REMARK  122  A    between atoms: _276  and  _279
REMARK  123  A    between atoms: _279  and  _280
REMARK  124  A    between atoms: _280  and  _281
REMARK  125  A    between atoms: _284  and  _286
REMARK  126  A    between atoms: _286  and  _287
REMARK  127  A    between atoms: _289  and  _291
REMARK  128  A    between atoms: _291  and  _292
REMARK  129  A    between atoms: _291  and  _294
REMARK  130  A    between atoms: _294  and  _295
REMARK  131  A    between atoms: _295  and  _296
REMARK  132  A    between atoms: _296  and  _297
REMARK  133  A    between atoms: _306  and  _308
REMARK  134  A    between atoms: _308  and  _309
REMARK  135  A    between atoms: _308  and  _311
REMARK  136  A    between atoms: _311  and  _312
REMARK  137  A    between atoms: _314  and  _316
REMARK  138  A    between atoms: _316  and  _317
REMARK  139  A    between atoms: _316  and  _319
REMARK  140  A    between atoms: _319  and  _320
REMARK  141  A    between atoms: _323  and  _325
REMARK  142  A    between atoms: _325  and  _326
REMARK  143  A    between atoms: _325  and  _328
REMARK  144  A    between atoms: _328  and  _329
REMARK  145  A    between atoms: _331  and  _333
REMARK  146  A    between atoms: _333  and  _334
REMARK  147  A    between atoms: _333  and  _336
REMARK  148  A    between atoms: _336  and  _337
REMARK  149  A    between atoms: _340  and  _342
REMARK  150  A    between atoms: _342  and  _343
REMARK  151  A    between atoms: _342  and  _345
REMARK  152  A    between atoms: _345  and  _346
REMARK  153  A    between atoms: _351  and  _353
REMARK  154  A    between atoms: _353  and  _354
REMARK  155  A    between atoms: _357  and  _359
REMARK  156  A    between atoms: _359  and  _360
REMARK  157  A    between atoms: _359  and  _362
REMARK  158  A    between atoms: _362  and  _363
REMARK  159  A    between atoms: _366  and  _368
REMARK  160  A    between atoms: _368  and  _369
REMARK  161  A    between atoms: _368  and  _371
REMARK  162  A    between atoms: _371  and  _372
REMARK  163  A    between atoms: _372  and  _373
REMARK  164  A    between atoms: _373  and  _374
REMARK  165  A    between atoms: _374  and  _375
REMARK  166  A    between atoms: _379  and  _381
REMARK  167  A    between atoms: _381  and  _382
REMARK  168  A    between atoms: _385  and  _387
REMARK  169  A    between atoms: _387  and  _388
REMARK  170  A    between atoms: _390  and  _392
REMARK  171  A    between atoms: _392  and  _393
REMARK  172  A    between atoms: _392  and  _395
REMARK  173  A    between atoms: _395  and  _396
REMARK  174  A    between atoms: _398  and  _400
REMARK  175  A    between atoms: _400  and  _401
REMARK  176  A    between atoms: _400  and  _403
REMARK  177  A    between atoms: _403  and  _404
REMARK  178  A    between atoms: _410  and  _412
REMARK  179  A    between atoms: _412  and  _413
REMARK  180  A    between atoms: _412  and  _415
REMARK  181  A    between atoms: _415  and  _416
REMARK  182  A    between atoms: _419  and  _421
REMARK  183  A    between atoms: _421  and  _422
REMARK  184  A    between atoms: _421  and  _424
REMARK  185  A    between atoms: _424  and  _425
REMARK  186  A    between atoms: _428  and  _430
REMARK  187  A    between atoms: _430  and  _431
REMARK  188  A    between atoms: _430  and  _433
REMARK  189  A    between atoms: _433  and  _434
REMARK  190  A    between atoms: _437  and  _439
REMARK  191  A    between atoms: _439  and  _440
REMARK  192  A    between atoms: _439  and  _442
REMARK  193  A    between atoms: _442  and  _443
REMARK  194  A    between atoms: _446  and  _448
REMARK  195  A    between atoms: _448  and  _449
REMARK  196  A    between atoms: _448  and  _451
REMARK  197  A    between atoms: _451  and  _452
REMARK  198  A    between atoms: _454  and  _456
REMARK  199  A    between atoms: _456  and  _457
REMARK  200  A    between atoms: _460  and  _462
REMARK  201  A    between atoms: _462  and  _463
REMARK  202  A    between atoms: _462  and  _465
REMARK  203  A    between atoms: _465  and  _466
REMARK  204  A    between atoms: _472  and  _474
REMARK  205  A    between atoms: _474  and  _475
REMARK  206  A    between atoms: _474  and  _477
REMARK  207  A    between atoms: _477  and  _478
REMARK  208  A    between atoms: _481  and  _483
REMARK  209  A    between atoms: _483  and  _484
REMARK  210  A    between atoms: _483  and  _486
REMARK  211  A    between atoms: _486  and  _487
REMARK  212  A    between atoms: _492  and  _494
REMARK  213  A    between atoms: _494  and  _495
REMARK  214  A    between atoms: _494  and  _497
REMARK  215  A    between atoms: _497  and  _498
REMARK  216  A    between atoms: _504  and  _506
REMARK  217  A    between atoms: _506  and  _507
REMARK  218  A    between atoms: _506  and  _509
REMARK  219  A    between atoms: _509  and  _510
REMARK  220  A    between atoms: _514  and  _515
REMARK                            x       y       z     vdW  Elec       q    Type
REMARK                         _______ _______ _______ _____ _____    ______ ____
ROOT
ATOM      1  C   LYS A   1      15.440  56.603 -40.802  0.00  0.00    +0.238 C 
ATOM      2  O   LYS A   1      16.424  56.412 -40.074  0.00  0.00    -0.274 OA
ATOM      3  N   ALA A   2      14.328  55.879 -40.697  0.00  0.00    -0.297 N 
ATOM      4  H   ALA A   2      13.586  55.976 -41.419  0.00  0.00    +0.150 HD
ENDROOT
BRANCH   3   5
ATOM      5  CA  ALA A   2      14.131  54.953 -39.590  0.00  0.00    +0.149 C 
ATOM      6  CB  ALA A   2      12.722  54.408 -39.609  0.00  0.00    +0.031 C 
BRANCH   5   7
ATOM      7  C   ALA A   2      15.155  53.823 -39.534  0.00  0.00    +0.241 C 
ATOM      8  O   ALA A   2      15.596  53.464 -38.448  0.00  0.00    -0.273 OA
ATOM      9  N   GLY A   3      15.546  53.282 -40.686  0.00  0.00    -0.296 N 
ATOM     10  H   GLY A   3      15.136  53.639 -41.572  0.00  0.00    +0.150 HD
BRANCH   9  11
ATOM     11  CA  GLY A   3      16.541  52.194 -40.750  0.00  0.00    +0.163 C 
BRANCH  11  12
ATOM     12  C   GLY A   3      17.853  52.583 -40.117  0.00  0.00    +0.229 C 
ATOM     13  O   GLY A   3      18.377  51.867 -39.266  0.00  0.00    -0.286 OA
ENDBRANCH  11  12
ENDBRANCH   9  11
ENDBRANCH   5   7
ENDBRANCH   3   5
BRANCH   1  14
ATOM     14  CA  LYS A   1      15.476  57.715 -41.867  0.00  0.00    +0.145 C 
BRANCH  14  15
ATOM     15  N   LYS A   1      14.205  57.948 -42.570  0.00  0.00    -0.238 NA
ATOM     16  H   LYS A   1      13.520  58.618 -42.167  0.00  0.00    +0.142 HD
ENDBRANCH  14  15
BRANCH  14  17
ATOM     17  CB  LYS A   1      15.926  59.020 -41.185  0.00  0.00    +0.026 C 
BRANCH  17  18
ATOM     18  CG  LYS A   1      16.058  60.212 -42.148  0.00  0.00    -0.000 C 
BRANCH  18  19
ATOM     19  CD  LYS A   1      15.316  61.422 -41.614  0.00  0.00    -0.024 C 
BRANCH  19  20
ATOM     20  CE  LYS A   1      15.700  62.690 -42.346  0.00  0.00    -0.086 C 
BRANCH  20  21
ATOM     21  NZ  LYS A   1      15.083  62.742 -43.682  0.00  0.00    +0.380 N 
ATOM     22  HZ1 LYS A   1      14.048  62.715 -43.586  0.00  0.00    -0.089 HD
ATOM     23  HZ2 LYS A   1      15.365  63.622 -44.159  0.00  0.00    -0.089 HD
ATOM     24  HZ3 LYS A   1      15.402  61.926 -44.242  0.00  0.00    -0.089 HD
ENDBRANCH  20  21
ENDBRANCH  19  20
ENDBRANCH  18  19
ENDBRANCH  17  18
ENDBRANCH  14  17
ENDBRANCH   1  14
TORSDOF 11
REMARK  Name = ../refined-set-2016/4ynb/4ynb_pocket.pdb
REMARK  220 active torsions:
REMARK  status: ('A' for Active; 'I' for Inactive)
REMARK    1  A    between atoms: _1  and  _3
REMARK    2  A    between atoms: _3  and  _4
REMARK    3  A    between atoms: _6  and  _8
REMARK    4  A    between atoms: _8  and  _9
REMARK    5  A    between atoms: _12  and  _14
REMARK    6  A    between atoms: _14  and  _15
REMARK    7  A    between atoms: _14  and  _17
REMARK    8  A    between atoms: _17  and  _18
REMARK    9  A    between atoms: _18  and  _19
REMARK   10  A    between atoms: _21  and  _23
REMARK   11  A    between atoms: _23  and  _24
REMARK   12  A    between atoms: _23  and  _26
REMARK   13  A    between atoms: _26  and  _27
REMARK   14  A    between atoms: _27  and  _28
REMARK   15  A    between atoms: _31  and  _33
REMARK   16  A    between atoms: _33  and  _34
REMARK   17  A    between atoms: _33  and  _36
REMARK   18  A    between atoms: _36  and  _37
REMARK   19  A    between atoms: _37  and  _38
REMARK   20  A    between atoms: _41  and  _43
REMARK   21  A    between atoms: _43  and  _44
REMARK   22  A    between atoms: _43  and  _46
REMARK   23  A    between atoms: _46  and  _47
REMARK   24  A    between atoms: _49  and  _51
REMARK   25  A    between atoms: _51  and  _52
REMARK   26  A    between atoms: _51  and  _54
REMARK   27  A    between atoms: _54  and  _55
REMARK   28  A    between atoms: _55  and  _56
REMARK   29  A    between atoms: _56  and  _57
REMARK   30  A    between atoms: _57  and  _58
REMARK   31  A    between atoms: _62  and  _64
REMARK   32  A    between atoms: _64  and  _65
REMARK   33  A    between atoms: _64  and  _67
REMARK   34  A    between atoms: _67  and  _68
REMARK   35  A    between atoms: _71  and  _73
REMARK   36  A    between atoms: _73  and  _74
REMARK   37  A    between atoms: _76  and  _78
REMARK   38  A    between atoms: _78  and  _79
REMARK   39  A    between atoms: _78  and  _81
REMARK   40  A    between atoms: _81  and  _82
REMARK   41  A    between atoms: _88  and  _90
REMARK   42  A    between atoms: _90  and  _91
REMARK   43  A    between atoms: _93  and  _95
REMARK   44  A    between atoms: _95  and  _96
REMARK   45  A    between atoms: _95  and  _98
REMARK   46  A    between atoms: _101  and  _103
REMARK   47  A    between atoms: _103  and  _104
REMARK   48  A    between atoms: _107  and  _109
REMARK   49  A    between atoms: _109  and  _110
REMARK   50  A    between atoms: _112  and  _114
REMARK   51  A    between atoms: _114  and  _115
REMARK   52  A    between atoms: _114  and  _117
REMARK   53  A    between atoms: _117  and  _118
REMARK   54  A    between atoms: _120  and  _122
REMARK   55  A    between atoms: _122  and  _123
REMARK   56  A    between atoms: _122  and  _125
REMARK   57  A    between atoms: _125  and  _126
REMARK   58  A    between atoms: _129  and  _131
REMARK   59  A    between atoms: _131  and  _132
REMARK   60  A    between atoms: _131  and  _134
REMARK   61  A    between atoms: _134  and  _135
REMARK   62  A    between atoms: _140  and  _142
REMARK   63  A    between atoms: _142  and  _143
REMARK   64  A    between atoms: _146  and  _148
REMARK   65  A    between atoms: _148  and  _149
REMARK   66  A    between atoms: _148  and  _151
REMARK   67  A    between atoms: _151  and  _152
REMARK   68  A    between atoms: _154  and  _156
REMARK   69  A    between atoms: _156  and  _157
REMARK   70  A    between atoms: _159  and  _161
REMARK   71  A    between atoms: _161  and  _162
REMARK   72  A    between atoms: _161  and  _164
REMARK   73  A    between atoms: _164  and  _165
REMARK   74  A    between atoms: _168  and  _170
REMARK   75  A    between atoms: _170  and  _171
REMARK   76  A    between atoms: _170  and  _173
REMARK   77  A    between atoms: _173  and  _174
REMARK   78  A    between atoms: _174  and  _175
REMARK   79  A    between atoms: _180  and  _182
REMARK   80  A    between atoms: _182  and  _183
REMARK   81  A    between atoms: _182  and  _185
REMARK   82  A    between atoms: _185  and  _186
REMARK   83  A    between atoms: _192  and  _194
REMARK   84  A    between atoms: _194  and  _195
REMARK   85  A    between atoms: _194  and  _197
REMARK   86  A    between atoms: _200  and  _202
REMARK   87  A    between atoms: _202  and  _203
REMARK   88  A    between atoms: _202  and  _205
REMARK   89  A    between atoms: _205  and  _206
REMARK   90  A    between atoms: _211  and  _213
REMARK   91  A    between atoms: _213  and  _214
REMARK   92  A    between atoms: _213  and  _216
REMARK   93  A    between atoms: _216  and  _217
REMARK   94  A    between atoms: _219  and  _221
REMARK   95  A    between atoms: _221  and  _222
REMARK   96  A    between atoms: _221  and  _224
REMARK   97  A    between atoms: _224  and  _225
REMARK   98  A    between atoms: _225  and  _226
REMARK   99  A    between atoms: _226  and  _227
REMARK  100  A    between atoms: _227  and  _228
REMARK  101  A    between atoms: _232  and  _234
REMARK  102  A    between atoms: _234  and  _235
REMARK  103  A    between atoms: _234  and  _237
REMARK  104  A    between atoms: _237  and  _238
REMARK  105  A    between atoms: _241  and  _243
REMARK  106  A    between atoms: _243  and  _244
REMARK  107  A    between atoms: _247  and  _249
REMARK  108  A    between atoms: _249  and  _250
REMARK  109  A    between atoms: _249  and  _252
REMARK  110  A    between atoms: _255  and  _257
REMARK  111  A    between atoms: _257  and  _258
REMARK  112  A    between atoms: _257  and  _260
REMARK  113  A    between atoms: _260  and  _261
REMARK  114  A    between atoms: _261  and  _262
REMARK  115  A    between atoms: _265  and  _267
REMARK  116  A    between atoms: _267  and  _268
REMARK  117  A    between atoms: _267  and  _270
REMARK  118  A    between atoms: _270  and  _271
REMARK  119  A    between atoms: _271  and  _272
REMARK  120  A    between atoms: _274  and  _276
REMARK  121  A    between atoms: _276  and  _277
REMARK  122  A    between atoms: _276  and  _279
REMARK  123  A    between atoms: _279  and  _280
REMARK  124  A    between atoms: _280  and  _281
REMARK  125  A    between atoms: _284  and  _286
REMARK  126  A    between atoms: _286  and  _287
REMARK  127  A    between atoms: _289  and  _291
REMARK  128  A    between atoms: _291  and  _292
REMARK  129  A    between atoms: _291  and  _294
REMARK  130  A    between atoms: _294  and  _295
REMARK  131  A    between atoms: _295  and  _296
REMARK  132  A    between atoms: _296  and  _297
REMARK  133  A    between atoms: _306  and  _308
REMARK  134  A    between atoms: _308  and  _309
REMARK  135  A    between atoms: _308  and  _311
REMARK  136  A    between atoms: _311  and  _312
REMARK  137  A    between atoms: _314  and  _316
REMARK  138  A    between atoms: _316  and  _317
REMARK  139  A    between atoms: _316  and  _319
REMARK  140  A    between atoms: _319  and  _320
REMARK  141  A    between atoms: _323  and  _325
REMARK  142  A    between atoms: _325  and  _326
REMARK  143  A    between atoms: _325  and  _328
REMARK  144  A    between atoms: _328  and  _329
REMARK  145  A    between atoms: _331  and  _333
REMARK  146  A    between atoms: _333  and  _334
REMARK  147  A    between atoms: _333  and  _336
REMARK  148  A    between atoms: _336  and  _337
REMARK  149  A    between atoms: _340  and  _342
REMARK  150  A    between atoms: _342  and  _343
REMARK  151  A    between atoms: _342  and  _345
REMARK  152  A    between atoms: _345  and  _346
REMARK  153  A    between atoms: _351  and  _353
REMARK  154  A    between atoms: _353  and  _354
REMARK  155  A    between atoms: _357  and  _359
REMARK  156  A    between atoms: _359  and  _360
REMARK  157  A    between atoms: _359  and  _362
REMARK  158  A    between atoms: _362  and  _363
REMARK  159  A    between atoms: _366  and  _368
REMARK  160  A    between atoms: _368  and  _369
REMARK  161  A    between atoms: _368  and  _371
REMARK  162  A    between atoms: _371  and  _372
REMARK  163  A    between atoms: _372  and  _373
REMARK  164  A    between atoms: _373  and  _374
REMARK  165  A    between atoms: _374  and  _375
REMARK  166  A    between atoms: _379  and  _381
REMARK  167  A    between atoms: _381  and  _382
REMARK  168  A    between atoms: _385  and  _387
REMARK  169  A    between atoms: _387  and  _388
REMARK  170  A    between atoms: _390  and  _392
REMARK  171  A    between atoms: _392  and  _393
REMARK  172  A    between atoms: _392  and  _395
REMARK  173  A    between atoms: _395  and  _396
REMARK  174  A    between atoms: _398  and  _400
REMARK  175  A    between atoms: _400  and  _401
REMARK  176  A    between atoms: _400  and  _403
REMARK  177  A    between atoms: _403  and  _404
REMARK  178  A    between atoms: _410  and  _412
REMARK  179  A    between atoms: _412  and  _413
REMARK  180  A    between atoms: _412  and  _415
REMARK  181  A    between atoms: _415  and  _416
REMARK  182  A    between atoms: _419  and  _421
REMARK  183  A    between atoms: _421  and  _422
REMARK  184  A    between atoms: _421  and  _424
REMARK  185  A    between atoms: _424  and  _425
REMARK  186  A    between atoms: _428  and  _430
REMARK  187  A    between atoms: _430  and  _431
REMARK  188  A    between atoms: _430  and  _433
REMARK  189  A    between atoms: _433  and  _434
REMARK  190  A    between atoms: _437  and  _439
REMARK  191  A    between atoms: _439  and  _440
REMARK  192  A    between atoms: _439  and  _442
REMARK  193  A    between atoms: _442  and  _443
REMARK  194  A    between atoms: _446  and  _448
REMARK  195  A    between atoms: _448  and  _449
REMARK  196  A    between atoms: _448  and  _451
REMARK  197  A    between atoms: _451  and  _452
REMARK  198  A    between atoms: _454  and  _456
REMARK  199  A    between atoms: _456  and  _457
REMARK  200  A    between atoms: _460  and  _462
REMARK  201  A    between atoms: _462  and  _463
REMARK  202  A    between atoms: _462  and  _465
REMARK  203  A    between atoms: _465  and  _466
REMARK  204  A    between atoms: _472  and  _474
REMARK  205  A    between atoms: _474  and  _475
REMARK  206  A    between atoms: _474  and  _477
REMARK  207  A    between atoms: _477  and  _478
REMARK  208  A    between atoms: _481  and  _483
REMARK  209  A    between atoms: _483  and  _484
REMARK  210  A    between atoms: _483  and  _486
REMARK  211  A    between atoms: _486  and  _487
REMARK  212  A    between atoms: _492  and  _494
REMARK  213  A    between atoms: _494  and  _495
REMARK  214  A    between atoms: _494  and  _497
REMARK  215  A    between atoms: _497  and  _498
REMARK  216  A    between atoms: _504  and  _506
REMARK  217  A    between atoms: _506  and  _507
REMARK  218  A    between atoms: _506  and  _509
REMARK  219  A    between atoms: _509  and  _510
REMARK  220  A    between atoms: _514  and  _515
REMARK                            x       y       z     vdW  Elec       q    Type
REMARK                         _______ _______ _______ _____ _____    ______ ____
ROOT
ATOM      1  CA  PHE A   2      17.166  51.964 -35.611  0.00  0.00    +0.153 C 
ENDROOT
BRANCH   1   4
ATOM      2  C   SER A   1      18.123  54.203 -35.792  0.00  0.00    +0.241 C 
ATOM      3  O   SER A   1      18.767  54.067 -34.755  0.00  0.00    -0.274 OA
ATOM      4  N   PHE A   2      17.349  53.257 -36.298  0.00  0.00    -0.297 N 
ATOM      5  H   PHE A   2      16.859  53.428 -37.199  0.00  0.00    +0.150 HD
BRANCH   2   6
ATOM      6  CA  SER A   1      18.185  55.501 -36.591  0.00  0.00    +0.174 C 
BRANCH   6   7
ATOM      7  N   SER A   1      18.365  55.170 -37.988  0.00  0.00    -0.236 NA
ATOM      8  H   SER A   1      17.622  55.428 -38.669  0.00  0.00    +0.142 HD
ENDBRANCH   6   7
BRANCH   6   9
ATOM      9  CB  SER A   1      16.912  56.323 -36.398  0.00  0.00    +0.163 C 
BRANCH   9  10
ATOM     10  OG  SER A   1      16.792  56.773 -35.051  0.00  0.00    -0.380 OA
ATOM     11  H   SER A   1      16.760  55.991 -34.445  0.00  0.00    +0.211 HD
ENDBRANCH   9  10
ENDBRANCH   6   9
ENDBRANCH   2   6
ENDBRANCH   1   4
BRANCH   1  12
ATOM     12  C   PHE A   2      18.505  51.266 -35.397  0.00  0.00    +0.241 C 
ATOM     13  O   PHE A   2      18.806  50.806 -34.285  0.00  0.00    -0.273 OA
ATOM     14  N   ASP A   3      19.318  51.200 -36.453  0.00  0.00    -0.298 N 
ATOM     15  H   ASP A   3      18.998  51.579 -37.367  0.00  0.00    +0.150 HD
BRANCH  14  16
ATOM     16  CA  ASP A   3      20.659  50.601 -36.351  0.00  0.00    +0.148 C 
BRANCH  16  17
ATOM     17  C   ASP A   3      21.527  51.319 -35.317  0.00  0.00    +0.227 C 
ATOM     18  O   ASP A   3      22.261  50.691 -34.568  0.00  0.00    -0.286 OA
ENDBRANCH  16  17
BRANCH  16  19
ATOM     19  CB  ASP A   3      21.386  50.648 -37.702  0.00  0.00    +0.142 C 
BRANCH  19  20
ATOM     20  CG  ASP A   3      20.854  49.640 -38.702  0.00  0.00    +0.367 C 
ATOM     21  OD2 ASP A   3      20.152  48.706 -38.312  0.00  0.00    -0.246 OA
ATOM     22  OD1 ASP A   3      21.165  49.787 -39.897  0.00  0.00    -0.246 OA
ENDBRANCH  19  20
ENDBRANCH  16  19
ENDBRANCH  14  16
ENDBRANCH   1  12
BRANCH   1  23
ATOM     23  CB  PHE A   2      16.250  51.076 -36.442  0.00  0.00    +0.055 C 
BRANCH  23  24
ATOM     24  CG  PHE A   2      16.064  49.703 -35.877  0.00  0.00    -0.020 A 
ATOM     25  CD2 PHE A   2      15.087  49.471 -34.926  0.00  0.00    -0.004 A 
ATOM     26  CE2 PHE A   2      14.921  48.218 -34.374  0.00  0.00    -0.000 A 
ATOM     27  CZ  PHE A   2      15.725  47.183 -34.784  0.00  0.00    -0.000 A 
ATOM     28  CE1 PHE A   2      16.718  47.405 -35.740  0.00  0.00    -0.000 A 
ATOM     29  CD1 PHE A   2      16.886  48.665 -36.275  0.00  0.00    -0.004 A 
ENDBRANCH  23  24
ENDBRANCH   1  23
TORSDOF 12
REMARK  Name = ../refined-set-2016/4ynb/4ynb_pocket.pdb
REMARK  220 active torsions:
REMARK  status: ('A' for Active; 'I' for Inactive)
REMARK    1  A    between atoms: _1  and  _3
REMARK    2  A    between atoms: _3  and  _4
REMARK    3  A    between atoms: _6  and  _8
REMARK    4  A    between atoms: _8  and  _9
REMARK    5  A    between atoms: _12  and  _14
REMARK    6  A    between atoms: _14  and  _15
REMARK    7  A    between atoms: _14  and  _17
REMARK    8  A    between atoms: _17  and  _18
REMARK    9  A    between atoms: _18  and  _19
REMARK   10  A    between atoms: _21  and  _23
REMARK   11  A    between atoms: _23  and  _24
REMARK   12  A    between atoms: _23  and  _26
REMARK   13  A    between atoms: _26  and  _27
REMARK   14  A    between atoms: _27  and  _28
REMARK   15  A    between atoms: _31  and  _33
REMARK   16  A    between atoms: _33  and  _34
REMARK   17  A    between atoms: _33  and  _36
REMARK   18  A    between atoms: _36  and  _37
REMARK   19  A    between atoms: _37  and  _38
REMARK   20  A    between atoms: _41  and  _43
REMARK   21  A    between atoms: _43  and  _44
REMARK   22  A    between atoms: _43  and  _46
REMARK   23  A    between atoms: _46  and  _47
REMARK   24  A    between atoms: _49  and  _51
REMARK   25  A    between atoms: _51  and  _52
REMARK   26  A    between atoms: _51  and  _54
REMARK   27  A    between atoms: _54  and  _55
REMARK   28  A    between atoms: _55  and  _56
REMARK   29  A    between atoms: _56  and  _57
REMARK   30  A    between atoms: _57  and  _58
REMARK   31  A    between atoms: _62  and  _64
REMARK   32  A    between atoms: _64  and  _65
REMARK   33  A    between atoms: _64  and  _67
REMARK   34  A    between atoms: _67  and  _68
REMARK   35  A    between atoms: _71  and  _73
REMARK   36  A    between atoms: _73  and  _74
REMARK   37  A    between atoms: _76  and  _78
REMARK   38  A    between atoms: _78  and  _79
REMARK   39  A    between atoms: _78  and  _81
REMARK   40  A    between atoms: _81  and  _82
REMARK   41  A    between atoms: _88  and  _90
REMARK   42  A    between atoms: _90  and  _91
REMARK   43  A    between atoms: _93  and  _95
REMARK   44  A    between atoms: _95  and  _96
REMARK   45  A    between atoms: _95  and  _98
REMARK   46  A    between atoms: _101  and  _103
REMARK   47  A    between atoms: _103  and  _104
REMARK   48  A    between atoms: _107  and  _109
REMARK   49  A    between atoms: _109  and  _110
REMARK   50  A    between atoms: _112  and  _114
REMARK   51  A    between atoms: _114  and  _115
REMARK   52  A    between atoms: _114  and  _117
REMARK   53  A    between atoms: _117  and  _118
REMARK   54  A    between atoms: _120  and  _122
REMARK   55  A    between atoms: _122  and  _123
REMARK   56  A    between atoms: _122  and  _125
REMARK   57  A    between atoms: _125  and  _126
REMARK   58  A    between atoms: _129  and  _131
REMARK   59  A    between atoms: _131  and  _132
REMARK   60  A    between atoms: _131  and  _134
REMARK   61  A    between atoms: _134  and  _135
REMARK   62  A    between atoms: _140  and  _142
REMARK   63  A    between atoms: _142  and  _143
REMARK   64  A    between atoms: _146  and  _148
REMARK   65  A    between atoms: _148  and  _149
REMARK   66  A    between atoms: _148  and  _151
REMARK   67  A    between atoms: _151  and  _152
REMARK   68  A    between atoms: _154  and  _156
REMARK   69  A    between atoms: _156  and  _157
REMARK   70  A    between atoms: _159  and  _161
REMARK   71  A    between atoms: _161  and  _162
REMARK   72  A    between atoms: _161  and  _164
REMARK   73  A    between atoms: _164  and  _165
REMARK   74  A    between atoms: _168  and  _170
REMARK   75  A    between atoms: _170  and  _171
REMARK   76  A    between atoms: _170  and  _173
REMARK   77  A    between atoms: _173  and  _174
REMARK   78  A    between atoms: _174  and  _175
REMARK   79  A    between atoms: _180  and  _182
REMARK   80  A    between atoms: _182  and  _183
REMARK   81  A    between atoms: _182  and  _185
REMARK   82  A    between atoms: _185  and  _186
REMARK   83  A    between atoms: _192  and  _194
REMARK   84  A    between atoms: _194  and  _195
REMARK   85  A    between atoms: _194  and  _197
REMARK   86  A    between atoms: _200  and  _202
REMARK   87  A    between atoms: _202  and  _203
REMARK   88  A    between atoms: _202  and  _205
REMARK   89  A    between atoms: _205  and  _206
REMARK   90  A    between atoms: _211  and  _213
REMARK   91  A    between atoms: _213  and  _214
REMARK   92  A    between atoms: _213  and  _216
REMARK   93  A    between atoms: _216  and  _217
REMARK   94  A    between atoms: _219  and  _221
REMARK   95  A    between atoms: _221  and  _222
REMARK   96  A    between atoms: _221  and  _224
REMARK   97  A    between atoms: _224  and  _225
REMARK   98  A    between atoms: _225  and  _226
REMARK   99  A    between atoms: _226  and  _227
REMARK  100  A    between atoms: _227  and  _228
REMARK  101  A    between atoms: _232  and  _234
REMARK  102  A    between atoms: _234  and  _235
REMARK  103  A    between atoms: _234  and  _237
REMARK  104  A    between atoms: _237  and  _238
REMARK  105  A    between atoms: _241  and  _243
REMARK  106  A    between atoms: _243  and  _244
REMARK  107  A    between atoms: _247  and  _249
REMARK  108  A    between atoms: _249  and  _250
REMARK  109  A    between atoms: _249  and  _252
REMARK  110  A    between atoms: _255  and  _257
REMARK  111  A    between atoms: _257  and  _258
REMARK  112  A    between atoms: _257  and  _260
REMARK  113  A    between atoms: _260  and  _261
REMARK  114  A    between atoms: _261  and  _262
REMARK  115  A    between atoms: _265  and  _267
REMARK  116  A    between atoms: _267  and  _268
REMARK  117  A    between atoms: _267  and  _270
REMARK  118  A    between atoms: _270  and  _271
REMARK  119  A    between atoms: _271  and  _272
REMARK  120  A    between atoms: _274  and  _276
REMARK  121  A    between atoms: _276  and  _277
REMARK  122  A    between atoms: _276  and  _279
REMARK  123  A    between atoms: _279  and  _280
REMARK  124  A    between atoms: _280  and  _281
REMARK  125  A    between atoms: _284  and  _286
REMARK  126  A    between atoms: _286  and  _287
REMARK  127  A    between atoms: _289  and  _291
REMARK  128  A    between atoms: _291  and  _292
REMARK  129  A    between atoms: _291  and  _294
REMARK  130  A    between atoms: _294  and  _295
REMARK  131  A    between atoms: _295  and  _296
REMARK  132  A    between atoms: _296  and  _297
REMARK  133  A    between atoms: _306  and  _308
REMARK  134  A    between atoms: _308  and  _309
REMARK  135  A    between atoms: _308  and  _311
REMARK  136  A    between atoms: _311  and  _312
REMARK  137  A    between atoms: _314  and  _316
REMARK  138  A    between atoms: _316  and  _317
REMARK  139  A    between atoms: _316  and  _319
REMARK  140  A    between atoms: _319  and  _320
REMARK  141  A    between atoms: _323  and  _325
REMARK  142  A    between atoms: _325  and  _326
REMARK  143  A    between atoms: _325  and  _328
REMARK  144  A    between atoms: _328  and  _329
REMARK  145  A    between atoms: _331  and  _333
REMARK  146  A    between atoms: _333  and  _334
REMARK  147  A    between atoms: _333  and  _336
REMARK  148  A    between atoms: _336  and  _337
REMARK  149  A    between atoms: _340  and  _342
REMARK  150  A    between atoms: _342  and  _343
REMARK  151  A    between atoms: _342  and  _345
REMARK  152  A    between atoms: _345  and  _346
REMARK  153  A    between atoms: _351  and  _353
REMARK  154  A    between atoms: _353  and  _354
REMARK  155  A    between atoms: _357  and  _359
REMARK  156  A    between atoms: _359  and  _360
REMARK  157  A    between atoms: _359  and  _362
REMARK  158  A    between atoms: _362  and  _363
REMARK  159  A    between atoms: _366  and  _368
REMARK  160  A    between atoms: _368  and  _369
REMARK  161  A    between atoms: _368  and  _371
REMARK  162  A    between atoms: _371  and  _372
REMARK  163  A    between atoms: _372  and  _373
REMARK  164  A    between atoms: _373  and  _374
REMARK  165  A    between atoms: _374  and  _375
REMARK  166  A    between atoms: _379  and  _381
REMARK  167  A    between atoms: _381  and  _382
REMARK  168  A    between atoms: _385  and  _387
REMARK  169  A    between atoms: _387  and  _388
REMARK  170  A    between atoms: _390  and  _392
REMARK  171  A    between atoms: _392  and  _393
REMARK  172  A    between atoms: _392  and  _395
REMARK  173  A    between atoms: _395  and  _396
REMARK  174  A    between atoms: _398  and  _400
REMARK  175  A    between atoms: _400  and  _401
REMARK  176  A    between atoms: _400  and  _403
REMARK  177  A    between atoms: _403  and  _404
REMARK  178  A    between atoms: _410  and  _412
REMARK  179  A    between atoms: _412  and  _413
REMARK  180  A    between atoms: _412  and  _415
REMARK  181  A    between atoms: _415  and  _416
REMARK  182  A    between atoms: _419  and  _421
REMARK  183  A    between atoms: _421  and  _422
REMARK  184  A    between atoms: _421  and  _424
REMARK  185  A    between atoms: _424  and  _425
REMARK  186  A    between atoms: _428  and  _430
REMARK  187  A    between atoms: _430  and  _431
REMARK  188  A    between atoms: _430  and  _433
REMARK  189  A    between atoms: _433  and  _434
REMARK  190  A    between atoms: _437  and  _439
REMARK  191  A    between atoms: _439  and  _440
REMARK  192  A    between atoms: _439  and  _442
REMARK  193  A    between atoms: _442  and  _443
REMARK  194  A    between atoms: _446  and  _448
REMARK  195  A    between atoms: _448  and  _449
REMARK  196  A    between atoms: _448  and  _451
REMARK  197  A    between atoms: _451  and  _452
REMARK  198  A    between atoms: _454  and  _456
REMARK  199  A    between atoms: _456  and  _457
REMARK  200  A    between atoms: _460  and  _462
REMARK  201  A    between atoms: _462  and  _463
REMARK  202  A    between atoms: _462  and  _465
REMARK  203  A    between atoms: _465  and  _466
REMARK  204  A    between atoms: _472  and  _474
REMARK  205  A    between atoms: _474  and  _475
REMARK  206  A    between atoms: _474  and  _477
REMARK  207  A    between atoms: _477  and  _478
REMARK  208  A    between atoms: _481  and  _483
REMARK  209  A    between atoms: _483  and  _484
REMARK  210  A    between atoms: _483  and  _486
REMARK  211  A    between atoms: _486  and  _487
REMARK  212  A    between atoms: _492  and  _494
REMARK  213  A    between atoms: _494  and  _495
REMARK  214  A    between atoms: _494  and  _497
REMARK  215  A    between atoms: _497  and  _498
REMARK  216  A    between atoms: _504  and  _506
REMARK  217  A    between atoms: _506  and  _507
REMARK  218  A    between atoms: _506  and  _509
REMARK  219  A    between atoms: _509  and  _510
REMARK  220  A    between atoms: _514  and  _515
REMARK                            x       y       z     vdW  Elec       q    Type
REMARK                         _______ _______ _______ _____ _____    ______ ____
ROOT
ATOM      1  CA  LEU A   1      18.711  49.611 -31.006  0.00  0.00    +0.133 C 
ENDROOT
BRANCH   1   2
ATOM      2  N   LEU A   1      19.309  50.863 -31.474  0.00  0.00    -0.239 NA
ATOM      3  H   LEU A   1      19.722  50.903 -32.427  0.00  0.00    +0.142 HD
ENDBRANCH   1   2
BRANCH   1   4
ATOM      4  C   LEU A   1      19.295  49.213 -29.640  0.00  0.00    +0.224 C 
ATOM      5  O   LEU A   1      18.563  48.918 -28.687  0.00  0.00    -0.287 OA
ENDBRANCH   1   4
BRANCH   1   6
ATOM      6  CB  LEU A   1      18.905  48.495 -32.038  0.00  0.00    +0.025 C 
BRANCH   6   7
ATOM      7  CG  LEU A   1      18.673  47.041 -31.594  0.00  0.00    +0.002 C 
ATOM      8  CD2 LEU A   1      17.206  46.867 -31.199  0.00  0.00    +0.000 C 
ATOM      9  CD1 LEU A   1      19.058  46.037 -32.672  0.00  0.00    +0.000 C 
ENDBRANCH   6   7
ENDBRANCH   1   6
TORSDOF 4
REMARK  Name = ../refined-set-2016/4ynb/4ynb_pocket.pdb
REMARK  220 active torsions:
REMARK  status: ('A' for Active; 'I' for Inactive)
REMARK    1  A    between atoms: _1  and  _3
REMARK    2  A    between atoms: _3  and  _4
REMARK    3  A    between atoms: _6  and  _8
REMARK    4  A    between atoms: _8  and  _9
REMARK    5  A    between atoms: _12  and  _14
REMARK    6  A    between atoms: _14  and  _15
REMARK    7  A    between atoms: _14  and  _17
REMARK    8  A    between atoms: _17  and  _18
REMARK    9  A    between atoms: _18  and  _19
REMARK   10  A    between atoms: _21  and  _23
REMARK   11  A    between atoms: _23  and  _24
REMARK   12  A    between atoms: _23  and  _26
REMARK   13  A    between atoms: _26  and  _27
REMARK   14  A    between atoms: _27  and  _28
REMARK   15  A    between atoms: _31  and  _33
REMARK   16  A    between atoms: _33  and  _34
REMARK   17  A    between atoms: _33  and  _36
REMARK   18  A    between atoms: _36  and  _37
REMARK   19  A    between atoms: _37  and  _38
REMARK   20  A    between atoms: _41  and  _43
REMARK   21  A    between atoms: _43  and  _44
REMARK   22  A    between atoms: _43  and  _46
REMARK   23  A    between atoms: _46  and  _47
REMARK   24  A    between atoms: _49  and  _51
REMARK   25  A    between atoms: _51  and  _52
REMARK   26  A    between atoms: _51  and  _54
REMARK   27  A    between atoms: _54  and  _55
REMARK   28  A    between atoms: _55  and  _56
REMARK   29  A    between atoms: _56  and  _57
REMARK   30  A    between atoms: _57  and  _58
REMARK   31  A    between atoms: _62  and  _64
REMARK   32  A    between atoms: _64  and  _65
REMARK   33  A    between atoms: _64  and  _67
REMARK   34  A    between atoms: _67  and  _68
REMARK   35  A    between atoms: _71  and  _73
REMARK   36  A    between atoms: _73  and  _74
REMARK   37  A    between atoms: _76  and  _78
REMARK   38  A    between atoms: _78  and  _79
REMARK   39  A    between atoms: _78  and  _81
REMARK   40  A    between atoms: _81  and  _82
REMARK   41  A    between atoms: _88  and  _90
REMARK   42  A    between atoms: _90  and  _91
REMARK   43  A    between atoms: _93  and  _95
REMARK   44  A    between atoms: _95  and  _96
REMARK   45  A    between atoms: _95  and  _98
REMARK   46  A    between atoms: _101  and  _103
REMARK   47  A    between atoms: _103  and  _104
REMARK   48  A    between atoms: _107  and  _109
REMARK   49  A    between atoms: _109  and  _110
REMARK   50  A    between atoms: _112  and  _114
REMARK   51  A    between atoms: _114  and  _115
REMARK   52  A    between atoms: _114  and  _117
REMARK   53  A    between atoms: _117  and  _118
REMARK   54  A    between atoms: _120  and  _122
REMARK   55  A    between atoms: _122  and  _123
REMARK   56  A    between atoms: _122  and  _125
REMARK   57  A    between atoms: _125  and  _126
REMARK   58  A    between atoms: _129  and  _131
REMARK   59  A    between atoms: _131  and  _132
REMARK   60  A    between atoms: _131  and  _134
REMARK   61  A    between atoms: _134  and  _135
REMARK   62  A    between atoms: _140  and  _142
REMARK   63  A    between atoms: _142  and  _143
REMARK   64  A    between atoms: _146  and  _148
REMARK   65  A    between atoms: _148  and  _149
REMARK   66  A    between atoms: _148  and  _151
REMARK   67  A    between atoms: _151  and  _152
REMARK   68  A    between atoms: _154  and  _156
REMARK   69  A    between atoms: _156  and  _157
REMARK   70  A    between atoms: _159  and  _161
REMARK   71  A    between atoms: _161  and  _162
REMARK   72  A    between atoms: _161  and  _164
REMARK   73  A    between atoms: _164  and  _165
REMARK   74  A    between atoms: _168  and  _170
REMARK   75  A    between atoms: _170  and  _171
REMARK   76  A    between atoms: _170  and  _173
REMARK   77  A    between atoms: _173  and  _174
REMARK   78  A    between atoms: _174  and  _175
REMARK   79  A    between atoms: _180  and  _182
REMARK   80  A    between atoms: _182  and  _183
REMARK   81  A    between atoms: _182  and  _185
REMARK   82  A    between atoms: _185  and  _186
REMARK   83  A    between atoms: _192  and  _194
REMARK   84  A    between atoms: _194  and  _195
REMARK   85  A    between atoms: _194  and  _197
REMARK   86  A    between atoms: _200  and  _202
REMARK   87  A    between atoms: _202  and  _203
REMARK   88  A    between atoms: _202  and  _205
REMARK   89  A    between atoms: _205  and  _206
REMARK   90  A    between atoms: _211  and  _213
REMARK   91  A    between atoms: _213  and  _214
REMARK   92  A    between atoms: _213  and  _216
REMARK   93  A    between atoms: _216  and  _217
REMARK   94  A    between atoms: _219  and  _221
REMARK   95  A    between atoms: _221  and  _222
REMARK   96  A    between atoms: _221  and  _224
REMARK   97  A    between atoms: _224  and  _225
REMARK   98  A    between atoms: _225  and  _226
REMARK   99  A    between atoms: _226  and  _227
REMARK  100  A    between atoms: _227  and  _228
REMARK  101  A    between atoms: _232  and  _234
REMARK  102  A    between atoms: _234  and  _235
REMARK  103  A    between atoms: _234  and  _237
REMARK  104  A    between atoms: _237  and  _238
REMARK  105  A    between atoms: _241  and  _243
REMARK  106  A    between atoms: _243  and  _244
REMARK  107  A    between atoms: _247  and  _249
REMARK  108  A    between atoms: _249  and  _250
REMARK  109  A    between atoms: _249  and  _252
REMARK  110  A    between atoms: _255  and  _257
REMARK  111  A    between atoms: _257  and  _258
REMARK  112  A    between atoms: _257  and  _260
REMARK  113  A    between atoms: _260  and  _261
REMARK  114  A    between atoms: _261  and  _262
REMARK  115  A    between atoms: _265  and  _267
REMARK  116  A    between atoms: _267  and  _268
REMARK  117  A    between atoms: _267  and  _270
REMARK  118  A    between atoms: _270  and  _271
REMARK  119  A    between atoms: _271  and  _272
REMARK  120  A    between atoms: _274  and  _276
REMARK  121  A    between atoms: _276  and  _277
REMARK  122  A    between atoms: _276  and  _279
REMARK  123  A    between atoms: _279  and  _280
REMARK  124  A    between atoms: _280  and  _281
REMARK  125  A    between atoms: _284  and  _286
REMARK  126  A    between atoms: _286  and  _287
REMARK  127  A    between atoms: _289  and  _291
REMARK  128  A    between atoms: _291  and  _292
REMARK  129  A    between atoms: _291  and  _294
REMARK  130  A    between atoms: _294  and  _295
REMARK  131  A    between atoms: _295  and  _296
REMARK  132  A    between atoms: _296  and  _297
REMARK  133  A    between atoms: _306  and  _308
REMARK  134  A    between atoms: _308  and  _309
REMARK  135  A    between atoms: _308  and  _311
REMARK  136  A    between atoms: _311  and  _312
REMARK  137  A    between atoms: _314  and  _316
REMARK  138  A    between atoms: _316  and  _317
REMARK  139  A    between atoms: _316  and  _319
REMARK  140  A    between atoms: _319  and  _320
REMARK  141  A    between atoms: _323  and  _325
REMARK  142  A    between atoms: _325  and  _326
REMARK  143  A    between atoms: _325  and  _328
REMARK  144  A    between atoms: _328  and  _329
REMARK  145  A    between atoms: _331  and  _333
REMARK  146  A    between atoms: _333  and  _334
REMARK  147  A    between atoms: _333  and  _336
REMARK  148  A    between atoms: _336  and  _337
REMARK  149  A    between atoms: _340  and  _342
REMARK  150  A    between atoms: _342  and  _343
REMARK  151  A    between atoms: _342  and  _345
REMARK  152  A    between atoms: _345  and  _346
REMARK  153  A    between atoms: _351  and  _353
REMARK  154  A    between atoms: _353  and  _354
REMARK  155  A    between atoms: _357  and  _359
REMARK  156  A    between atoms: _359  and  _360
REMARK  157  A    between atoms: _359  and  _362
REMARK  158  A    between atoms: _362  and  _363
REMARK  159  A    between atoms: _366  and  _368
REMARK  160  A    between atoms: _368  and  _369
REMARK  161  A    between atoms: _368  and  _371
REMARK  162  A    between atoms: _371  and  _372
REMARK  163  A    between atoms: _372  and  _373
REMARK  164  A    between atoms: _373  and  _374
REMARK  165  A    between atoms: _374  and  _375
REMARK  166  A    between atoms: _379  and  _381
REMARK  167  A    between atoms: _381  and  _382
REMARK  168  A    between atoms: _385  and  _387
REMARK  169  A    between atoms: _387  and  _388
REMARK  170  A    between atoms: _390  and  _392
REMARK  171  A    between atoms: _392  and  _393
REMARK  172  A    between atoms: _392  and  _395
REMARK  173  A    between atoms: _395  and  _396
REMARK  174  A    between atoms: _398  and  _400
REMARK  175  A    between atoms: _400  and  _401
REMARK  176  A    between atoms: _400  and  _403
REMARK  177  A    between atoms: _403  and  _404
REMARK  178  A    between atoms: _410  and  _412
REMARK  179  A    between atoms: _412  and  _413
REMARK  180  A    between atoms: _412  and  _415
REMARK  181  A    between atoms: _415  and  _416
REMARK  182  A    between atoms: _419  and  _421
REMARK  183  A    between atoms: _421  and  _422
REMARK  184  A    between atoms: _421  and  _424
REMARK  185  A    between atoms: _424  and  _425
REMARK  186  A    between atoms: _428  and  _430
REMARK  187  A    between atoms: _430  and  _431
REMARK  188  A    between atoms: _430  and  _433
REMARK  189  A    between atoms: _433  and  _434
REMARK  190  A    between atoms: _437  and  _439
REMARK  191  A    between atoms: _439  and  _440
REMARK  192  A    between atoms: _439  and  _442
REMARK  193  A    between atoms: _442  and  _443
REMARK  194  A    between atoms: _446  and  _448
REMARK  195  A    between atoms: _448  and  _449
REMARK  196  A    between atoms: _448  and  _451
REMARK  197  A    between atoms: _451  and  _452
REMARK  198  A    between atoms: _454  and  _456
REMARK  199  A    between atoms: _456  and  _457
REMARK  200  A    between atoms: _460  and  _462
REMARK  201  A    between atoms: _462  and  _463
REMARK  202  A    between atoms: _462  and  _465
REMARK  203  A    between atoms: _465  and  _466
REMARK  204  A    between atoms: _472  and  _474
REMARK  205  A    between atoms: _474  and  _475
REMARK  206  A    between atoms: _474  and  _477
REMARK  207  A    between atoms: _477  and  _478
REMARK  208  A    between atoms: _481  and  _483
REMARK  209  A    between atoms: _483  and  _484
REMARK  210  A    between atoms: _483  and  _486
REMARK  211  A    between atoms: _486  and  _487
REMARK  212  A    between atoms: _492  and  _494
REMARK  213  A    between atoms: _494  and  _495
REMARK  214  A    between atoms: _494  and  _497
REMARK  215  A    between atoms: _497  and  _498
REMARK  216  A    between atoms: _504  and  _506
REMARK  217  A    between atoms: _506  and  _507
REMARK  218  A    between atoms: _506  and  _509
REMARK  219  A    between atoms: _509  and  _510
REMARK  220  A    between atoms: _514  and  _515
REMARK                            x       y       z     vdW  Elec       q    Type
REMARK                         _______ _______ _______ _____ _____    ______ ____
ROOT
ATOM      1  C   ALA A   4      15.337  48.246 -44.733  0.00  0.00    +0.241 C 
ATOM      2  N   PHE A   5      15.485  46.959 -44.440  0.00  0.00    -0.297 N 
ATOM      3  H   PHE A   5      14.649  46.340 -44.459  0.00  0.00    +0.150 HD
ATOM      4  O   ALA A   4      16.237  49.052 -44.628  0.00  0.00    -0.273 OA
ENDROOT
BRANCH   1   5
ATOM      5  CA  ALA A   4      13.954  48.706 -45.190  0.00  0.00    +0.149 C 
ATOM      6  CB  ALA A   4      13.226  49.391 -44.049  0.00  0.00    +0.031 C 
BRANCH   5   8
ATOM      7  C   SER A   3      13.586  46.883 -46.755  0.00  0.00    +0.243 C 
ATOM      8  N   ALA A   4      13.161  47.615 -45.733  0.00  0.00    -0.297 N 
ATOM      9  H   ALA A   4      12.235  47.403 -45.309  0.00  0.00    +0.150 HD
ATOM     10  O   SER A   3      14.635  47.120 -47.359  0.00  0.00    -0.273 OA
BRANCH   7  11
ATOM     11  CA  SER A   3      12.733  45.685 -47.141  0.00  0.00    +0.178 C 
BRANCH  11  14
ATOM     12  C   LEU A   2      12.351  44.748 -44.905  0.00  0.00    +0.241 C 
ATOM     13  O   LEU A   2      13.583  44.690 -44.655  0.00  0.00    -0.273 OA
ATOM     14  N   SER A   3      11.854  45.217 -46.051  0.00  0.00    -0.295 N 
ATOM     15  H   SER A   3      10.823  45.254 -46.180  0.00  0.00    +0.150 HD
BRANCH  12  16
ATOM     16  CA  LEU A   2      11.307  44.282 -43.877  0.00  0.00    +0.149 C 
BRANCH  16  19
ATOM     17  C   ASP A   1       8.953  44.359 -44.526  0.00  0.00    +0.239 C 
ATOM     18  O   ASP A   1       8.717  45.306 -43.782  0.00  0.00    -0.274 OA
ATOM     19  N   LEU A   2      10.136  43.774 -44.589  0.00  0.00    -0.297 N 
ATOM     20  H   LEU A   2      10.238  42.917 -45.169  0.00  0.00    +0.150 HD
BRANCH  17  21
ATOM     21  CA  ASP A   1       7.878  43.791 -45.455  0.00  0.00    +0.156 C 
BRANCH  21  22
ATOM     22  N   ASP A   1       6.976  42.860 -44.751  0.00  0.00    -0.238 NA
ATOM     23  H   ASP A   1       6.663  43.100 -43.789  0.00  0.00    +0.142 HD
ENDBRANCH  21  22
BRANCH  21  24
ATOM     24  CB  ASP A   1       7.059  44.924 -46.053  0.00  0.00    +0.140 C 
BRANCH  24  25
ATOM     25  CG  ASP A   1       7.904  45.912 -46.843  0.00  0.00    +0.367 C 
ATOM     26  OD2 ASP A   1       9.150  45.774 -46.913  0.00  0.00    -0.246 OA
ATOM     27  OD1 ASP A   1       7.272  46.805 -47.428  0.00  0.00    -0.246 OA
ENDBRANCH  24  25
ENDBRANCH  21  24
ENDBRANCH  17  21
ENDBRANCH  16  19
BRANCH  16  28
ATOM     28  CB  LEU A   2      11.894  43.188 -42.998  0.00  0.00    +0.029 C 
BRANCH  28  29
ATOM     29  CG  LEU A   2      10.983  42.664 -41.866  0.00  0.00    +0.002 C 
ATOM     30  CD2 LEU A   2      10.661  43.792 -40.929  0.00  0.00    +0.000 C 
ATOM     31  CD1 LEU A   2      11.657  41.543 -41.100  0.00  0.00    +0.000 C 
ENDBRANCH  28  29
ENDBRANCH  16  28
ENDBRANCH  12  16
ENDBRANCH  11  14
BRANCH  11  32
ATOM     32  CB  SER A   3      11.923  46.006 -48.404  0.00  0.00    +0.166 C 
BRANCH  32  33
ATOM     33  OG  SER A   3      10.980  47.042 -48.176  0.00  0.00    -0.380 OA
ATOM     34  H   SER A   3      10.350  46.763 -47.465  0.00  0.00    +0.211 HD
ENDBRANCH  32  33
ENDBRANCH  11  32
ENDBRANCH   7  11
ENDBRANCH   5   8
ENDBRANCH   1   5
BRANCH   2  35
ATOM     35  CA  PHE A   5      16.779  46.384 -44.093  0.00  0.00    +0.153 C 
BRANCH  35  36
ATOM     36  C   PHE A   5      17.278  45.460 -45.194  0.00  0.00    +0.241 C 
ATOM     37  O   PHE A   5      18.025  44.530 -44.935  0.00  0.00    -0.273 OA
ATOM     38  N   ASP A   6      16.835  45.714 -46.419  0.00  0.00    -0.297 N 
ATOM     39  H   ASP A   6      16.160  46.494 -46.556  0.00  0.00    +0.150 HD
BRANCH  38  40
ATOM     40  CA  ASP A   6      17.261  44.937 -47.585  0.00  0.00    +0.160 C 
BRANCH  40  41
ATOM     41  C   ASP A   6      16.937  43.433 -47.509  0.00  0.00    +0.241 C 
ATOM     42  N   HIS A   7      15.911  43.078 -46.742  0.00  0.00    -0.298 N 
ATOM     43  H   HIS A   7      15.483  43.774 -46.098  0.00  0.00    +0.150 HD
ATOM     44  O   ASP A   6      17.610  42.606 -48.134  0.00  0.00    -0.273 OA
BRANCH  42  45
ATOM     45  CA  HIS A   7      15.383  41.727 -46.796  0.00  0.00    +0.143 C 
BRANCH  45  46
ATOM     46  C   HIS A   7      14.393  41.615 -47.944  0.00  0.00    +0.227 C 
ATOM     47  O   HIS A   7      13.635  42.535 -48.210  0.00  0.00    -0.286 OA
ENDBRANCH  45  46
BRANCH  45  48
ATOM     48  CB  HIS A   7      14.716  41.362 -45.483  0.00  0.00    +0.075 C 
BRANCH  48  49
ATOM     49  CG  HIS A   7      15.673  41.343 -44.342  0.00  0.00    +0.082 A 
ATOM     50  CD2 HIS A   7      15.699  42.034 -43.181  0.00  0.00    +0.115 A 
ATOM     51  NE2 HIS A   7      16.813  41.625 -42.496  0.00  0.00    -0.221 NA
ATOM     52  CE1 HIS A   7      17.456  40.721 -43.212  0.00  0.00    +0.199 A 
ATOM     53  ND1 HIS A   7      16.789  40.534 -44.338  0.00  0.00    -0.227 NA
ENDBRANCH  48  49
ENDBRANCH  45  48
ENDBRANCH  42  45
ENDBRANCH  40  41
BRANCH  40  54
ATOM     54  CB  ASP A   6      18.768  45.152 -47.844  0.00  0.00    +0.143 C 
BRANCH  54  55
ATOM     55  CG  ASP A   6      19.115  46.608 -48.112  0.00  0.00    +0.367 C 
ATOM     56  OD2 ASP A   6      20.299  46.973 -47.953  0.00  0.00    -0.246 OA
ATOM     57  OD1 ASP A   6      18.211  47.396 -48.469  0.00  0.00    -0.246 OA
ENDBRANCH  54  55
ENDBRANCH  40  54
ENDBRANCH  38  40
ENDBRANCH  35  36
BRANCH  35  58
ATOM     58  CB  PHE A   5      16.642  45.646 -42.776  0.00  0.00    +0.055 C 
BRANCH  58  59
ATOM     59  CG  PHE A   5      16.286  46.558 -41.645  0.00  0.00    -0.020 A 
ATOM     60  CD2 PHE A   5      17.273  47.322 -41.017  0.00  0.00    -0.004 A 
ATOM     61  CE2 PHE A   5      16.951  48.185 -39.966  0.00  0.00    -0.000 A 
ATOM     62  CZ  PHE A   5      15.616  48.313 -39.566  0.00  0.00    -0.000 A 
ATOM     63  CE1 PHE A   5      14.626  47.577 -40.217  0.00  0.00    -0.000 A 
ATOM     64  CD1 PHE A   5      14.968  46.704 -41.251  0.00  0.00    -0.004 A 
ENDBRANCH  58  59
ENDBRANCH  35  58
ENDBRANCH   2  35
TORSDOF 26
REMARK  Name = ../refined-set-2016/4ynb/4ynb_pocket.pdb
REMARK  220 active torsions:
REMARK  status: ('A' for Active; 'I' for Inactive)
REMARK    1  A    between atoms: _1  and  _3
REMARK    2  A    between atoms: _3  and  _4
REMARK    3  A    between atoms: _6  and  _8
REMARK    4  A    between atoms: _8  and  _9
REMARK    5  A    between atoms: _12  and  _14
REMARK    6  A    between atoms: _14  and  _15
REMARK    7  A    between atoms: _14  and  _17
REMARK    8  A    between atoms: _17  and  _18
REMARK    9  A    between atoms: _18  and  _19
REMARK   10  A    between atoms: _21  and  _23
REMARK   11  A    between atoms: _23  and  _24
REMARK   12  A    between atoms: _23  and  _26
REMARK   13  A    between atoms: _26  and  _27
REMARK   14  A    between atoms: _27  and  _28
REMARK   15  A    between atoms: _31  and  _33
REMARK   16  A    between atoms: _33  and  _34
REMARK   17  A    between atoms: _33  and  _36
REMARK   18  A    between atoms: _36  and  _37
REMARK   19  A    between atoms: _37  and  _38
REMARK   20  A    between atoms: _41  and  _43
REMARK   21  A    between atoms: _43  and  _44
REMARK   22  A    between atoms: _43  and  _46
REMARK   23  A    between atoms: _46  and  _47
REMARK   24  A    between atoms: _49  and  _51
REMARK   25  A    between atoms: _51  and  _52
REMARK   26  A    between atoms: _51  and  _54
REMARK   27  A    between atoms: _54  and  _55
REMARK   28  A    between atoms: _55  and  _56
REMARK   29  A    between atoms: _56  and  _57
REMARK   30  A    between atoms: _57  and  _58
REMARK   31  A    between atoms: _62  and  _64
REMARK   32  A    between atoms: _64  and  _65
REMARK   33  A    between atoms: _64  and  _67
REMARK   34  A    between atoms: _67  and  _68
REMARK   35  A    between atoms: _71  and  _73
REMARK   36  A    between atoms: _73  and  _74
REMARK   37  A    between atoms: _76  and  _78
REMARK   38  A    between atoms: _78  and  _79
REMARK   39  A    between atoms: _78  and  _81
REMARK   40  A    between atoms: _81  and  _82
REMARK   41  A    between atoms: _88  and  _90
REMARK   42  A    between atoms: _90  and  _91
REMARK   43  A    between atoms: _93  and  _95
REMARK   44  A    between atoms: _95  and  _96
REMARK   45  A    between atoms: _95  and  _98
REMARK   46  A    between atoms: _101  and  _103
REMARK   47  A    between atoms: _103  and  _104
REMARK   48  A    between atoms: _107  and  _109
REMARK   49  A    between atoms: _109  and  _110
REMARK   50  A    between atoms: _112  and  _114
REMARK   51  A    between atoms: _114  and  _115
REMARK   52  A    between atoms: _114  and  _117
REMARK   53  A    between atoms: _117  and  _118
REMARK   54  A    between atoms: _120  and  _122
REMARK   55  A    between atoms: _122  and  _123
REMARK   56  A    between atoms: _122  and  _125
REMARK   57  A    between atoms: _125  and  _126
REMARK   58  A    between atoms: _129  and  _131
REMARK   59  A    between atoms: _131  and  _132
REMARK   60  A    between atoms: _131  and  _134
REMARK   61  A    between atoms: _134  and  _135
REMARK   62  A    between atoms: _140  and  _142
REMARK   63  A    between atoms: _142  and  _143
REMARK   64  A    between atoms: _146  and  _148
REMARK   65  A    between atoms: _148  and  _149
REMARK   66  A    between atoms: _148  and  _151
REMARK   67  A    between atoms: _151  and  _152
REMARK   68  A    between atoms: _154  and  _156
REMARK   69  A    between atoms: _156  and  _157
REMARK   70  A    between atoms: _159  and  _161
REMARK   71  A    between atoms: _161  and  _162
REMARK   72  A    between atoms: _161  and  _164
REMARK   73  A    between atoms: _164  and  _165
REMARK   74  A    between atoms: _168  and  _170
REMARK   75  A    between atoms: _170  and  _171
REMARK   76  A    between atoms: _170  and  _173
REMARK   77  A    between atoms: _173  and  _174
REMARK   78  A    between atoms: _174  and  _175
REMARK   79  A    between atoms: _180  and  _182
REMARK   80  A    between atoms: _182  and  _183
REMARK   81  A    between atoms: _182  and  _185
REMARK   82  A    between atoms: _185  and  _186
REMARK   83  A    between atoms: _192  and  _194
REMARK   84  A    between atoms: _194  and  _195
REMARK   85  A    between atoms: _194  and  _197
REMARK   86  A    between atoms: _200  and  _202
REMARK   87  A    between atoms: _202  and  _203
REMARK   88  A    between atoms: _202  and  _205
REMARK   89  A    between atoms: _205  and  _206
REMARK   90  A    between atoms: _211  and  _213
REMARK   91  A    between atoms: _213  and  _214
REMARK   92  A    between atoms: _213  and  _216
REMARK   93  A    between atoms: _216  and  _217
REMARK   94  A    between atoms: _219  and  _221
REMARK   95  A    between atoms: _221  and  _222
REMARK   96  A    between atoms: _221  and  _224
REMARK   97  A    between atoms: _224  and  _225
REMARK   98  A    between atoms: _225  and  _226
REMARK   99  A    between atoms: _226  and  _227
REMARK  100  A    between atoms: _227  and  _228
REMARK  101  A    between atoms: _232  and  _234
REMARK  102  A    between atoms: _234  and  _235
REMARK  103  A    between atoms: _234  and  _237
REMARK  104  A    between atoms: _237  and  _238
REMARK  105  A    between atoms: _241  and  _243
REMARK  106  A    between atoms: _243  and  _244
REMARK  107  A    between atoms: _247  and  _249
REMARK  108  A    between atoms: _249  and  _250
REMARK  109  A    between atoms: _249  and  _252
REMARK  110  A    between atoms: _255  and  _257
REMARK  111  A    between atoms: _257  and  _258
REMARK  112  A    between atoms: _257  and  _260
REMARK  113  A    between atoms: _260  and  _261
REMARK  114  A    between atoms: _261  and  _262
REMARK  115  A    between atoms: _265  and  _267
REMARK  116  A    between atoms: _267  and  _268
REMARK  117  A    between atoms: _267  and  _270
REMARK  118  A    between atoms: _270  and  _271
REMARK  119  A    between atoms: _271  and  _272
REMARK  120  A    between atoms: _274  and  _276
REMARK  121  A    between atoms: _276  and  _277
REMARK  122  A    between atoms: _276  and  _279
REMARK  123  A    between atoms: _279  and  _280
REMARK  124  A    between atoms: _280  and  _281
REMARK  125  A    between atoms: _284  and  _286
REMARK  126  A    between atoms: _286  and  _287
REMARK  127  A    between atoms: _289  and  _291
REMARK  128  A    between atoms: _291  and  _292
REMARK  129  A    between atoms: _291  and  _294
REMARK  130  A    between atoms: _294  and  _295
REMARK  131  A    between atoms: _295  and  _296
REMARK  132  A    between atoms: _296  and  _297
REMARK  133  A    between atoms: _306  and  _308
REMARK  134  A    between atoms: _308  and  _309
REMARK  135  A    between atoms: _308  and  _311
REMARK  136  A    between atoms: _311  and  _312
REMARK  137  A    between atoms: _314  and  _316
REMARK  138  A    between atoms: _316  and  _317
REMARK  139  A    between atoms: _316  and  _319
REMARK  140  A    between atoms: _319  and  _320
REMARK  141  A    between atoms: _323  and  _325
REMARK  142  A    between atoms: _325  and  _326
REMARK  143  A    between atoms: _325  and  _328
REMARK  144  A    between atoms: _328  and  _329
REMARK  145  A    between atoms: _331  and  _333
REMARK  146  A    between atoms: _333  and  _334
REMARK  147  A    between atoms: _333  and  _336
REMARK  148  A    between atoms: _336  and  _337
REMARK  149  A    between atoms: _340  and  _342
REMARK  150  A    between atoms: _342  and  _343
REMARK  151  A    between atoms: _342  and  _345
REMARK  152  A    between atoms: _345  and  _346
REMARK  153  A    between atoms: _351  and  _353
REMARK  154  A    between atoms: _353  and  _354
REMARK  155  A    between atoms: _357  and  _359
REMARK  156  A    between atoms: _359  and  _360
REMARK  157  A    between atoms: _359  and  _362
REMARK  158  A    between atoms: _362  and  _363
REMARK  159  A    between atoms: _366  and  _368
REMARK  160  A    between atoms: _368  and  _369
REMARK  161  A    between atoms: _368  and  _371
REMARK  162  A    between atoms: _371  and  _372
REMARK  163  A    between atoms: _372  and  _373
REMARK  164  A    between atoms: _373  and  _374
REMARK  165  A    between atoms: _374  and  _375
REMARK  166  A    between atoms: _379  and  _381
REMARK  167  A    between atoms: _381  and  _382
REMARK  168  A    between atoms: _385  and  _387
REMARK  169  A    between atoms: _387  and  _388
REMARK  170  A    between atoms: _390  and  _392
REMARK  171  A    between atoms: _392  and  _393
REMARK  172  A    between atoms: _392  and  _395
REMARK  173  A    between atoms: _395  and  _396
REMARK  174  A    between atoms: _398  and  _400
REMARK  175  A    between atoms: _400  and  _401
REMARK  176  A    between atoms: _400  and  _403
REMARK  177  A    between atoms: _403  and  _404
REMARK  178  A    between atoms: _410  and  _412
REMARK  179  A    between atoms: _412  and  _413
REMARK  180  A    between atoms: _412  and  _415
REMARK  181  A    between atoms: _415  and  _416
REMARK  182  A    between atoms: _419  and  _421
REMARK  183  A    between atoms: _421  and  _422
REMARK  184  A    between atoms: _421  and  _424
REMARK  185  A    between atoms: _424  and  _425
REMARK  186  A    between atoms: _428  and  _430
REMARK  187  A    between atoms: _430  and  _431
REMARK  188  A    between atoms: _430  and  _433
REMARK  189  A    between atoms: _433  and  _434
REMARK  190  A    between atoms: _437  and  _439
REMARK  191  A    between atoms: _439  and  _440
REMARK  192  A    between atoms: _439  and  _442
REMARK  193  A    between atoms: _442  and  _443
REMARK  194  A    between atoms: _446  and  _448
REMARK  195  A    between atoms: _448  and  _449
REMARK  196  A    between atoms: _448  and  _451
REMARK  197  A    between atoms: _451  and  _452
REMARK  198  A    between atoms: _454  and  _456
REMARK  199  A    between atoms: _456  and  _457
REMARK  200  A    between atoms: _460  and  _462
REMARK  201  A    between atoms: _462  and  _463
REMARK  202  A    between atoms: _462  and  _465
REMARK  203  A    between atoms: _465  and  _466
REMARK  204  A    between atoms: _472  and  _474
REMARK  205  A    between atoms: _474  and  _475
REMARK  206  A    between atoms: _474  and  _477
REMARK  207  A    between atoms: _477  and  _478
REMARK  208  A    between atoms: _481  and  _483
REMARK  209  A    between atoms: _483  and  _484
REMARK  210  A    between atoms: _483  and  _486
REMARK  211  A    between atoms: _486  and  _487
REMARK  212  A    between atoms: _492  and  _494
REMARK  213  A    between atoms: _494  and  _495
REMARK  214  A    between atoms: _494  and  _497
REMARK  215  A    between atoms: _497  and  _498
REMARK  216  A    between atoms: _504  and  _506
REMARK  217  A    between atoms: _506  and  _507
REMARK  218  A    between atoms: _506  and  _509
REMARK  219  A    between atoms: _509  and  _510
REMARK  220  A    between atoms: _514  and  _515
REMARK                            x       y       z     vdW  Elec       q    Type
REMARK                         _______ _______ _______ _____ _____    ______ ____
ROOT
ATOM      1  C   PHE A   1      11.402  37.914 -43.953  0.00  0.00    +0.239 C 
ATOM      2  N   ILE A   2      11.546  37.088 -42.921  0.00  0.00    -0.297 N 
ATOM      3  H   ILE A   2      11.432  36.069 -43.093  0.00  0.00    +0.150 HD
ATOM      4  O   PHE A   1      11.378  39.149 -43.863  0.00  0.00    -0.274 OA
ENDROOT
BRANCH   1   5
ATOM      5  CA  PHE A   1      11.270  37.213 -45.290  0.00  0.00    +0.149 C 
BRANCH   5   6
ATOM      6  N   PHE A   1      10.201  37.798 -46.092  0.00  0.00    -0.238 NA
ATOM      7  H   PHE A   1      10.393  38.687 -46.596  0.00  0.00    +0.142 HD
ENDBRANCH   5   6
BRANCH   5   8
ATOM      8  CB  PHE A   1      12.627  37.299 -46.004  0.00  0.00    +0.053 C 
BRANCH   8   9
ATOM      9  CG  PHE A   1      13.775  36.745 -45.187  0.00  0.00    -0.020 A 
ATOM     10  CD2 PHE A   1      14.573  37.577 -44.425  0.00  0.00    -0.004 A 
ATOM     11  CE2 PHE A   1      15.605  37.075 -43.662  0.00  0.00    -0.000 A 
ATOM     12  CZ  PHE A   1      15.838  35.731 -43.641  0.00  0.00    -0.000 A 
ATOM     13  CE1 PHE A   1      15.042  34.885 -44.389  0.00  0.00    -0.000 A 
ATOM     14  CD1 PHE A   1      14.004  35.402 -45.138  0.00  0.00    -0.004 A 
ENDBRANCH   8   9
ENDBRANCH   5   8
ENDBRANCH   1   5
BRANCH   2  15
ATOM     15  CA  ILE A   2      11.850  37.516 -41.578  0.00  0.00    +0.149 C 
BRANCH  15  16
ATOM     16  C   ILE A   2      13.120  36.791 -41.128  0.00  0.00    +0.244 C 
ATOM     17  N   PRO A   3      14.071  37.532 -40.517  0.00  0.00    -0.273 N 
ATOM     18  CA  PRO A   3      15.268  36.928 -39.977  0.00  0.00    +0.140 C 
ATOM     19  CB  PRO A   3      15.882  38.040 -39.136  0.00  0.00    +0.030 C 
ATOM     20  CG  PRO A   3      15.447  39.282 -39.794  0.00  0.00    +0.024 C 
ATOM     21  CD  PRO A   3      14.054  38.986 -40.307  0.00  0.00    +0.094 C 
ATOM     22  O   ILE A   2      13.247  35.580 -41.342  0.00  0.00    -0.273 OA
BRANCH  18  23
ATOM     23  C   PRO A   3      14.932  35.759 -39.090  0.00  0.00    +0.227 C 
ATOM     24  O   PRO A   3      13.964  35.805 -38.323  0.00  0.00    -0.286 OA
ENDBRANCH  18  23
ENDBRANCH  15  16
BRANCH  15  25
ATOM     25  CB  ILE A   2      10.684  37.193 -40.615  0.00  0.00    +0.027 C 
ATOM     26  CG2 ILE A   2      10.984  37.705 -39.222  0.00  0.00    +0.002 C 
BRANCH  25  27
ATOM     27  CG1 ILE A   2       9.404  37.836 -41.147  0.00  0.00    +0.002 C 
ATOM     28  CD1 ILE A   2       8.169  37.546 -40.325  0.00  0.00    +0.000 C 
ENDBRANCH  25  27
ENDBRANCH  15  25
ENDBRANCH   2  15
TORSDOF 9
REMARK  Name = ../refined-set-2016/4ynb/4ynb_pocket.pdb
REMARK  220 active torsions:
REMARK  status: ('A' for Active; 'I' for Inactive)
REMARK    1  A    between atoms: _1  and  _3
REMARK    2  A    between atoms: _3  and  _4
REMARK    3  A    between atoms: _6  and  _8
REMARK    4  A    between atoms: _8  and  _9
REMARK    5  A    between atoms: _12  and  _14
REMARK    6  A    between atoms: _14  and  _15
REMARK    7  A    between atoms: _14  and  _17
REMARK    8  A    between atoms: _17  and  _18
REMARK    9  A    between atoms: _18  and  _19
REMARK   10  A    between atoms: _21  and  _23
REMARK   11  A    between atoms: _23  and  _24
REMARK   12  A    between atoms: _23  and  _26
REMARK   13  A    between atoms: _26  and  _27
REMARK   14  A    between atoms: _27  and  _28
REMARK   15  A    between atoms: _31  and  _33
REMARK   16  A    between atoms: _33  and  _34
REMARK   17  A    between atoms: _33  and  _36
REMARK   18  A    between atoms: _36  and  _37
REMARK   19  A    between atoms: _37  and  _38
REMARK   20  A    between atoms: _41  and  _43
REMARK   21  A    between atoms: _43  and  _44
REMARK   22  A    between atoms: _43  and  _46
REMARK   23  A    between atoms: _46  and  _47
REMARK   24  A    between atoms: _49  and  _51
REMARK   25  A    between atoms: _51  and  _52
REMARK   26  A    between atoms: _51  and  _54
REMARK   27  A    between atoms: _54  and  _55
REMARK   28  A    between atoms: _55  and  _56
REMARK   29  A    between atoms: _56  and  _57
REMARK   30  A    between atoms: _57  and  _58
REMARK   31  A    between atoms: _62  and  _64
REMARK   32  A    between atoms: _64  and  _65
REMARK   33  A    between atoms: _64  and  _67
REMARK   34  A    between atoms: _67  and  _68
REMARK   35  A    between atoms: _71  and  _73
REMARK   36  A    between atoms: _73  and  _74
REMARK   37  A    between atoms: _76  and  _78
REMARK   38  A    between atoms: _78  and  _79
REMARK   39  A    between atoms: _78  and  _81
REMARK   40  A    between atoms: _81  and  _82
REMARK   41  A    between atoms: _88  and  _90
REMARK   42  A    between atoms: _90  and  _91
REMARK   43  A    between atoms: _93  and  _95
REMARK   44  A    between atoms: _95  and  _96
REMARK   45  A    between atoms: _95  and  _98
REMARK   46  A    between atoms: _101  and  _103
REMARK   47  A    between atoms: _103  and  _104
REMARK   48  A    between atoms: _107  and  _109
REMARK   49  A    between atoms: _109  and  _110
REMARK   50  A    between atoms: _112  and  _114
REMARK   51  A    between atoms: _114  and  _115
REMARK   52  A    between atoms: _114  and  _117
REMARK   53  A    between atoms: _117  and  _118
REMARK   54  A    between atoms: _120  and  _122
REMARK   55  A    between atoms: _122  and  _123
REMARK   56  A    between atoms: _122  and  _125
REMARK   57  A    between atoms: _125  and  _126
REMARK   58  A    between atoms: _129  and  _131
REMARK   59  A    between atoms: _131  and  _132
REMARK   60  A    between atoms: _131  and  _134
REMARK   61  A    between atoms: _134  and  _135
REMARK   62  A    between atoms: _140  and  _142
REMARK   63  A    between atoms: _142  and  _143
REMARK   64  A    between atoms: _146  and  _148
REMARK   65  A    between atoms: _148  and  _149
REMARK   66  A    between atoms: _148  and  _151
REMARK   67  A    between atoms: _151  and  _152
REMARK   68  A    between atoms: _154  and  _156
REMARK   69  A    between atoms: _156  and  _157
REMARK   70  A    between atoms: _159  and  _161
REMARK   71  A    between atoms: _161  and  _162
REMARK   72  A    between atoms: _161  and  _164
REMARK   73  A    between atoms: _164  and  _165
REMARK   74  A    between atoms: _168  and  _170
REMARK   75  A    between atoms: _170  and  _171
REMARK   76  A    between atoms: _170  and  _173
REMARK   77  A    between atoms: _173  and  _174
REMARK   78  A    between atoms: _174  and  _175
REMARK   79  A    between atoms: _180  and  _182
REMARK   80  A    between atoms: _182  and  _183
REMARK   81  A    between atoms: _182  and  _185
REMARK   82  A    between atoms: _185  and  _186
REMARK   83  A    between atoms: _192  and  _194
REMARK   84  A    between atoms: _194  and  _195
REMARK   85  A    between atoms: _194  and  _197
REMARK   86  A    between atoms: _200  and  _202
REMARK   87  A    between atoms: _202  and  _203
REMARK   88  A    between atoms: _202  and  _205
REMARK   89  A    between atoms: _205  and  _206
REMARK   90  A    between atoms: _211  and  _213
REMARK   91  A    between atoms: _213  and  _214
REMARK   92  A    between atoms: _213  and  _216
REMARK   93  A    between atoms: _216  and  _217
REMARK   94  A    between atoms: _219  and  _221
REMARK   95  A    between atoms: _221  and  _222
REMARK   96  A    between atoms: _221  and  _224
REMARK   97  A    between atoms: _224  and  _225
REMARK   98  A    between atoms: _225  and  _226
REMARK   99  A    between atoms: _226  and  _227
REMARK  100  A    between atoms: _227  and  _228
REMARK  101  A    between atoms: _232  and  _234
REMARK  102  A    between atoms: _234  and  _235
REMARK  103  A    between atoms: _234  and  _237
REMARK  104  A    between atoms: _237  and  _238
REMARK  105  A    between atoms: _241  and  _243
REMARK  106  A    between atoms: _243  and  _244
REMARK  107  A    between atoms: _247  and  _249
REMARK  108  A    between atoms: _249  and  _250
REMARK  109  A    between atoms: _249  and  _252
REMARK  110  A    between atoms: _255  and  _257
REMARK  111  A    between atoms: _257  and  _258
REMARK  112  A    between atoms: _257  and  _260
REMARK  113  A    between atoms: _260  and  _261
REMARK  114  A    between atoms: _261  and  _262
REMARK  115  A    between atoms: _265  and  _267
REMARK  116  A    between atoms: _267  and  _268
REMARK  117  A    between atoms: _267  and  _270
REMARK  118  A    between atoms: _270  and  _271
REMARK  119  A    between atoms: _271  and  _272
REMARK  120  A    between atoms: _274  and  _276
REMARK  121  A    between atoms: _276  and  _277
REMARK  122  A    between atoms: _276  and  _279
REMARK  123  A    between atoms: _279  and  _280
REMARK  124  A    between atoms: _280  and  _281
REMARK  125  A    between atoms: _284  and  _286
REMARK  126  A    between atoms: _286  and  _287
REMARK  127  A    between atoms: _289  and  _291
REMARK  128  A    between atoms: _291  and  _292
REMARK  129  A    between atoms: _291  and  _294
REMARK  130  A    between atoms: _294  and  _295
REMARK  131  A    between atoms: _295  and  _296
REMARK  132  A    between atoms: _296  and  _297
REMARK  133  A    between atoms: _306  and  _308
REMARK  134  A    between atoms: _308  and  _309
REMARK  135  A    between atoms: _308  and  _311
REMARK  136  A    between atoms: _311  and  _312
REMARK  137  A    between atoms: _314  and  _316
REMARK  138  A    between atoms: _316  and  _317
REMARK  139  A    between atoms: _316  and  _319
REMARK  140  A    between atoms: _319  and  _320
REMARK  141  A    between atoms: _323  and  _325
REMARK  142  A    between atoms: _325  and  _326
REMARK  143  A    between atoms: _325  and  _328
REMARK  144  A    between atoms: _328  and  _329
REMARK  145  A    between atoms: _331  and  _333
REMARK  146  A    between atoms: _333  and  _334
REMARK  147  A    between atoms: _333  and  _336
REMARK  148  A    between atoms: _336  and  _337
REMARK  149  A    between atoms: _340  and  _342
REMARK  150  A    between atoms: _342  and  _343
REMARK  151  A    between atoms: _342  and  _345
REMARK  152  A    between atoms: _345  and  _346
REMARK  153  A    between atoms: _351  and  _353
REMARK  154  A    between atoms: _353  and  _354
REMARK  155  A    between atoms: _357  and  _359
REMARK  156  A    between atoms: _359  and  _360
REMARK  157  A    between atoms: _359  and  _362
REMARK  158  A    between atoms: _362  and  _363
REMARK  159  A    between atoms: _366  and  _368
REMARK  160  A    between atoms: _368  and  _369
REMARK  161  A    between atoms: _368  and  _371
REMARK  162  A    between atoms: _371  and  _372
REMARK  163  A    between atoms: _372  and  _373
REMARK  164  A    between atoms: _373  and  _374
REMARK  165  A    between atoms: _374  and  _375
REMARK  166  A    between atoms: _379  and  _381
REMARK  167  A    between atoms: _381  and  _382
REMARK  168  A    between atoms: _385  and  _387
REMARK  169  A    between atoms: _387  and  _388
REMARK  170  A    between atoms: _390  and  _392
REMARK  171  A    between atoms: _392  and  _393
REMARK  172  A    between atoms: _392  and  _395
REMARK  173  A    between atoms: _395  and  _396
REMARK  174  A    between atoms: _398  and  _400
REMARK  175  A    between atoms: _400  and  _401
REMARK  176  A    between atoms: _400  and  _403
REMARK  177  A    between atoms: _403  and  _404
REMARK  178  A    between atoms: _410  and  _412
REMARK  179  A    between atoms: _412  and  _413
REMARK  180  A    between atoms: _412  and  _415
REMARK  181  A    between atoms: _415  and  _416
REMARK  182  A    between atoms: _419  and  _421
REMARK  183  A    between atoms: _421  and  _422
REMARK  184  A    between atoms: _421  and  _424
REMARK  185  A    between atoms: _424  and  _425
REMARK  186  A    between atoms: _428  and  _430
REMARK  187  A    between atoms: _430  and  _431
REMARK  188  A    between atoms: _430  and  _433
REMARK  189  A    between atoms: _433  and  _434
REMARK  190  A    between atoms: _437  and  _439
REMARK  191  A    between atoms: _439  and  _440
REMARK  192  A    between atoms: _439  and  _442
REMARK  193  A    between atoms: _442  and  _443
REMARK  194  A    between atoms: _446  and  _448
REMARK  195  A    between atoms: _448  and  _449
REMARK  196  A    between atoms: _448  and  _451
REMARK  197  A    between atoms: _451  and  _452
REMARK  198  A    between atoms: _454  and  _456
REMARK  199  A    between atoms: _456  and  _457
REMARK  200  A    between atoms: _460  and  _462
REMARK  201  A    between atoms: _462  and  _463
REMARK  202  A    between atoms: _462  and  _465
REMARK  203  A    between atoms: _465  and  _466
REMARK  204  A    between atoms: _472  and  _474
REMARK  205  A    between atoms: _474  and  _475
REMARK  206  A    between atoms: _474  and  _477
REMARK  207  A    between atoms: _477  and  _478
REMARK  208  A    between atoms: _481  and  _483
REMARK  209  A    between atoms: _483  and  _484
REMARK  210  A    between atoms: _483  and  _486
REMARK  211  A    between atoms: _486  and  _487
REMARK  212  A    between atoms: _492  and  _494
REMARK  213  A    between atoms: _494  and  _495
REMARK  214  A    between atoms: _494  and  _497
REMARK  215  A    between atoms: _497  and  _498
REMARK  216  A    between atoms: _504  and  _506
REMARK  217  A    between atoms: _506  and  _507
REMARK  218  A    between atoms: _506  and  _509
REMARK  219  A    between atoms: _509  and  _510
REMARK  220  A    between atoms: _514  and  _515
REMARK                            x       y       z     vdW  Elec       q    Type
REMARK                         _______ _______ _______ _____ _____    ______ ____
ROOT
ATOM      1  O   HOH     1      18.939  39.539 -33.886  0.00  0.00    +0.000 OA
ENDROOT
TORSDOF 0
REMARK  Name = ../refined-set-2016/4ynb/4ynb_pocket.pdb
REMARK  220 active torsions:
REMARK  status: ('A' for Active; 'I' for Inactive)
REMARK    1  A    between atoms: _1  and  _3
REMARK    2  A    between atoms: _3  and  _4
REMARK    3  A    between atoms: _6  and  _8
REMARK    4  A    between atoms: _8  and  _9
REMARK    5  A    between atoms: _12  and  _14
REMARK    6  A    between atoms: _14  and  _15
REMARK    7  A    between atoms: _14  and  _17
REMARK    8  A    between atoms: _17  and  _18
REMARK    9  A    between atoms: _18  and  _19
REMARK   10  A    between atoms: _21  and  _23
REMARK   11  A    between atoms: _23  and  _24
REMARK   12  A    between atoms: _23  and  _26
REMARK   13  A    between atoms: _26  and  _27
REMARK   14  A    between atoms: _27  and  _28
REMARK   15  A    between atoms: _31  and  _33
REMARK   16  A    between atoms: _33  and  _34
REMARK   17  A    between atoms: _33  and  _36
REMARK   18  A    between atoms: _36  and  _37
REMARK   19  A    between atoms: _37  and  _38
REMARK   20  A    between atoms: _41  and  _43
REMARK   21  A    between atoms: _43  and  _44
REMARK   22  A    between atoms: _43  and  _46
REMARK   23  A    between atoms: _46  and  _47
REMARK   24  A    between atoms: _49  and  _51
REMARK   25  A    between atoms: _51  and  _52
REMARK   26  A    between atoms: _51  and  _54
REMARK   27  A    between atoms: _54  and  _55
REMARK   28  A    between atoms: _55  and  _56
REMARK   29  A    between atoms: _56  and  _57
REMARK   30  A    between atoms: _57  and  _58
REMARK   31  A    between atoms: _62  and  _64
REMARK   32  A    between atoms: _64  and  _65
REMARK   33  A    between atoms: _64  and  _67
REMARK   34  A    between atoms: _67  and  _68
REMARK   35  A    between atoms: _71  and  _73
REMARK   36  A    between atoms: _73  and  _74
REMARK   37  A    between atoms: _76  and  _78
REMARK   38  A    between atoms: _78  and  _79
REMARK   39  A    between atoms: _78  and  _81
REMARK   40  A    between atoms: _81  and  _82
REMARK   41  A    between atoms: _88  and  _90
REMARK   42  A    between atoms: _90  and  _91
REMARK   43  A    between atoms: _93  and  _95
REMARK   44  A    between atoms: _95  and  _96
REMARK   45  A    between atoms: _95  and  _98
REMARK   46  A    between atoms: _101  and  _103
REMARK   47  A    between atoms: _103  and  _104
REMARK   48  A    between atoms: _107  and  _109
REMARK   49  A    between atoms: _109  and  _110
REMARK   50  A    between atoms: _112  and  _114
REMARK   51  A    between atoms: _114  and  _115
REMARK   52  A    between atoms: _114  and  _117
REMARK   53  A    between atoms: _117  and  _118
REMARK   54  A    between atoms: _120  and  _122
REMARK   55  A    between atoms: _122  and  _123
REMARK   56  A    between atoms: _122  and  _125
REMARK   57  A    between atoms: _125  and  _126
REMARK   58  A    between atoms: _129  and  _131
REMARK   59  A    between atoms: _131  and  _132
REMARK   60  A    between atoms: _131  and  _134
REMARK   61  A    between atoms: _134  and  _135
REMARK   62  A    between atoms: _140  and  _142
REMARK   63  A    between atoms: _142  and  _143
REMARK   64  A    between atoms: _146  and  _148
REMARK   65  A    between atoms: _148  and  _149
REMARK   66  A    between atoms: _148  and  _151
REMARK   67  A    between atoms: _151  and  _152
REMARK   68  A    between atoms: _154  and  _156
REMARK   69  A    between atoms: _156  and  _157
REMARK   70  A    between atoms: _159  and  _161
REMARK   71  A    between atoms: _161  and  _162
REMARK   72  A    between atoms: _161  and  _164
REMARK   73  A    between atoms: _164  and  _165
REMARK   74  A    between atoms: _168  and  _170
REMARK   75  A    between atoms: _170  and  _171
REMARK   76  A    between atoms: _170  and  _173
REMARK   77  A    between atoms: _173  and  _174
REMARK   78  A    between atoms: _174  and  _175
REMARK   79  A    between atoms: _180  and  _182
REMARK   80  A    between atoms: _182  and  _183
REMARK   81  A    between atoms: _182  and  _185
REMARK   82  A    between atoms: _185  and  _186
REMARK   83  A    between atoms: _192  and  _194
REMARK   84  A    between atoms: _194  and  _195
REMARK   85  A    between atoms: _194  and  _197
REMARK   86  A    between atoms: _200  and  _202
REMARK   87  A    between atoms: _202  and  _203
REMARK   88  A    between atoms: _202  and  _205
REMARK   89  A    between atoms: _205  and  _206
REMARK   90  A    between atoms: _211  and  _213
REMARK   91  A    between atoms: _213  and  _214
REMARK   92  A    between atoms: _213  and  _216
REMARK   93  A    between atoms: _216  and  _217
REMARK   94  A    between atoms: _219  and  _221
REMARK   95  A    between atoms: _221  and  _222
REMARK   96  A    between atoms: _221  and  _224
REMARK   97  A    between atoms: _224  and  _225
REMARK   98  A    between atoms: _225  and  _226
REMARK   99  A    between atoms: _226  and  _227
REMARK  100  A    between atoms: _227  and  _228
REMARK  101  A    between atoms: _232  and  _234
REMARK  102  A    between atoms: _234  and  _235
REMARK  103  A    between atoms: _234  and  _237
REMARK  104  A    between atoms: _237  and  _238
REMARK  105  A    between atoms: _241  and  _243
REMARK  106  A    between atoms: _243  and  _244
REMARK  107  A    between atoms: _247  and  _249
REMARK  108  A    between atoms: _249  and  _250
REMARK  109  A    between atoms: _249  and  _252
REMARK  110  A    between atoms: _255  and  _257
REMARK  111  A    between atoms: _257  and  _258
REMARK  112  A    between atoms: _257  and  _260
REMARK  113  A    between atoms: _260  and  _261
REMARK  114  A    between atoms: _261  and  _262
REMARK  115  A    between atoms: _265  and  _267
REMARK  116  A    between atoms: _267  and  _268
REMARK  117  A    between atoms: _267  and  _270
REMARK  118  A    between atoms: _270  and  _271
REMARK  119  A    between atoms: _271  and  _272
REMARK  120  A    between atoms: _274  and  _276
REMARK  121  A    between atoms: _276  and  _277
REMARK  122  A    between atoms: _276  and  _279
REMARK  123  A    between atoms: _279  and  _280
REMARK  124  A    between atoms: _280  and  _281
REMARK  125  A    between atoms: _284  and  _286
REMARK  126  A    between atoms: _286  and  _287
REMARK  127  A    between atoms: _289  and  _291
REMARK  128  A    between atoms: _291  and  _292
REMARK  129  A    between atoms: _291  and  _294
REMARK  130  A    between atoms: _294  and  _295
REMARK  131  A    between atoms: _295  and  _296
REMARK  132  A    between atoms: _296  and  _297
REMARK  133  A    between atoms: _306  and  _308
REMARK  134  A    between atoms: _308  and  _309
REMARK  135  A    between atoms: _308  and  _311
REMARK  136  A    between atoms: _311  and  _312
REMARK  137  A    between atoms: _314  and  _316
REMARK  138  A    between atoms: _316  and  _317
REMARK  139  A    between atoms: _316  and  _319
REMARK  140  A    between atoms: _319  and  _320
REMARK  141  A    between atoms: _323  and  _325
REMARK  142  A    between atoms: _325  and  _326
REMARK  143  A    between atoms: _325  and  _328
REMARK  144  A    between atoms: _328  and  _329
REMARK  145  A    between atoms: _331  and  _333
REMARK  146  A    between atoms: _333  and  _334
REMARK  147  A    between atoms: _333  and  _336
REMARK  148  A    between atoms: _336  and  _337
REMARK  149  A    between atoms: _340  and  _342
REMARK  150  A    between atoms: _342  and  _343
REMARK  151  A    between atoms: _342  and  _345
REMARK  152  A    between atoms: _345  and  _346
REMARK  153  A    between atoms: _351  and  _353
REMARK  154  A    between atoms: _353  and  _354
REMARK  155  A    between atoms: _357  and  _359
REMARK  156  A    between atoms: _359  and  _360
REMARK  157  A    between atoms: _359  and  _362
REMARK  158  A    between atoms: _362  and  _363
REMARK  159  A    between atoms: _366  and  _368
REMARK  160  A    between atoms: _368  and  _369
REMARK  161  A    between atoms: _368  and  _371
REMARK  162  A    between atoms: _371  and  _372
REMARK  163  A    between atoms: _372  and  _373
REMARK  164  A    between atoms: _373  and  _374
REMARK  165  A    between atoms: _374  and  _375
REMARK  166  A    between atoms: _379  and  _381
REMARK  167  A    between atoms: _381  and  _382
REMARK  168  A    between atoms: _385  and  _387
REMARK  169  A    between atoms: _387  and  _388
REMARK  170  A    between atoms: _390  and  _392
REMARK  171  A    between atoms: _392  and  _393
REMARK  172  A    between atoms: _392  and  _395
REMARK  173  A    between atoms: _395  and  _396
REMARK  174  A    between atoms: _398  and  _400
REMARK  175  A    between atoms: _400  and  _401
REMARK  176  A    between atoms: _400  and  _403
REMARK  177  A    between atoms: _403  and  _404
REMARK  178  A    between atoms: _410  and  _412
REMARK  179  A    between atoms: _412  and  _413
REMARK  180  A    between atoms: _412  and  _415
REMARK  181  A    between atoms: _415  and  _416
REMARK  182  A    between atoms: _419  and  _421
REMARK  183  A    between atoms: _421  and  _422
REMARK  184  A    between atoms: _421  and  _424
REMARK  185  A    between atoms: _424  and  _425
REMARK  186  A    between atoms: _428  and  _430
REMARK  187  A    between atoms: _430  and  _431
REMARK  188  A    between atoms: _430  and  _433
REMARK  189  A    between atoms: _433  and  _434
REMARK  190  A    between atoms: _437  and  _439
REMARK  191  A    between atoms: _439  and  _440
REMARK  192  A    between atoms: _439  and  _442
REMARK  193  A    between atoms: _442  and  _443
REMARK  194  A    between atoms: _446  and  _448
REMARK  195  A    between atoms: _448  and  _449
REMARK  196  A    between atoms: _448  and  _451
REMARK  197  A    between atoms: _451  and  _452
REMARK  198  A    between atoms: _454  and  _456
REMARK  199  A    between atoms: _456  and  _457
REMARK  200  A    between atoms: _460  and  _462
REMARK  201  A    between atoms: _462  and  _463
REMARK  202  A    between atoms: _462  and  _465
REMARK  203  A    between atoms: _465  and  _466
REMARK  204  A    between atoms: _472  and  _474
REMARK  205  A    between atoms: _474  and  _475
REMARK  206  A    between atoms: _474  and  _477
REMARK  207  A    between atoms: _477  and  _478
REMARK  208  A    between atoms: _481  and  _483
REMARK  209  A    between atoms: _483  and  _484
REMARK  210  A    between atoms: _483  and  _486
REMARK  211  A    between atoms: _486  and  _487
REMARK  212  A    between atoms: _492  and  _494
REMARK  213  A    between atoms: _494  and  _495
REMARK  214  A    between atoms: _494  and  _497
REMARK  215  A    between atoms: _497  and  _498
REMARK  216  A    between atoms: _504  and  _506
REMARK  217  A    between atoms: _506  and  _507
REMARK  218  A    between atoms: _506  and  _509
REMARK  219  A    between atoms: _509  and  _510
REMARK  220  A    between atoms: _514  and  _515
REMARK                            x       y       z     vdW  Elec       q    Type
REMARK                         _______ _______ _______ _____ _____    ______ ____
ROOT
ATOM      1  O   HOH     1       2.548  49.224 -43.025  0.00  0.00    +0.000 OA
ENDROOT
TORSDOF 0
REMARK  Name = ../refined-set-2016/4ynb/4ynb_pocket.pdb
REMARK  220 active torsions:
REMARK  status: ('A' for Active; 'I' for Inactive)
REMARK    1  A    between atoms: _1  and  _3
REMARK    2  A    between atoms: _3  and  _4
REMARK    3  A    between atoms: _6  and  _8
REMARK    4  A    between atoms: _8  and  _9
REMARK    5  A    between atoms: _12  and  _14
REMARK    6  A    between atoms: _14  and  _15
REMARK    7  A    between atoms: _14  and  _17
REMARK    8  A    between atoms: _17  and  _18
REMARK    9  A    between atoms: _18  and  _19
REMARK   10  A    between atoms: _21  and  _23
REMARK   11  A    between atoms: _23  and  _24
REMARK   12  A    between atoms: _23  and  _26
REMARK   13  A    between atoms: _26  and  _27
REMARK   14  A    between atoms: _27  and  _28
REMARK   15  A    between atoms: _31  and  _33
REMARK   16  A    between atoms: _33  and  _34
REMARK   17  A    between atoms: _33  and  _36
REMARK   18  A    between atoms: _36  and  _37
REMARK   19  A    between atoms: _37  and  _38
REMARK   20  A    between atoms: _41  and  _43
REMARK   21  A    between atoms: _43  and  _44
REMARK   22  A    between atoms: _43  and  _46
REMARK   23  A    between atoms: _46  and  _47
REMARK   24  A    between atoms: _49  and  _51
REMARK   25  A    between atoms: _51  and  _52
REMARK   26  A    between atoms: _51  and  _54
REMARK   27  A    between atoms: _54  and  _55
REMARK   28  A    between atoms: _55  and  _56
REMARK   29  A    between atoms: _56  and  _57
REMARK   30  A    between atoms: _57  and  _58
REMARK   31  A    between atoms: _62  and  _64
REMARK   32  A    between atoms: _64  and  _65
REMARK   33  A    between atoms: _64  and  _67
REMARK   34  A    between atoms: _67  and  _68
REMARK   35  A    between atoms: _71  and  _73
REMARK   36  A    between atoms: _73  and  _74
REMARK   37  A    between atoms: _76  and  _78
REMARK   38  A    between atoms: _78  and  _79
REMARK   39  A    between atoms: _78  and  _81
REMARK   40  A    between atoms: _81  and  _82
REMARK   41  A    between atoms: _88  and  _90
REMARK   42  A    between atoms: _90  and  _91
REMARK   43  A    between atoms: _93  and  _95
REMARK   44  A    between atoms: _95  and  _96
REMARK   45  A    between atoms: _95  and  _98
REMARK   46  A    between atoms: _101  and  _103
REMARK   47  A    between atoms: _103  and  _104
REMARK   48  A    between atoms: _107  and  _109
REMARK   49  A    between atoms: _109  and  _110
REMARK   50  A    between atoms: _112  and  _114
REMARK   51  A    between atoms: _114  and  _115
REMARK   52  A    between atoms: _114  and  _117
REMARK   53  A    between atoms: _117  and  _118
REMARK   54  A    between atoms: _120  and  _122
REMARK   55  A    between atoms: _122  and  _123
REMARK   56  A    between atoms: _122  and  _125
REMARK   57  A    between atoms: _125  and  _126
REMARK   58  A    between atoms: _129  and  _131
REMARK   59  A    between atoms: _131  and  _132
REMARK   60  A    between atoms: _131  and  _134
REMARK   61  A    between atoms: _134  and  _135
REMARK   62  A    between atoms: _140  and  _142
REMARK   63  A    between atoms: _142  and  _143
REMARK   64  A    between atoms: _146  and  _148
REMARK   65  A    between atoms: _148  and  _149
REMARK   66  A    between atoms: _148  and  _151
REMARK   67  A    between atoms: _151  and  _152
REMARK   68  A    between atoms: _154  and  _156
REMARK   69  A    between atoms: _156  and  _157
REMARK   70  A    between atoms: _159  and  _161
REMARK   71  A    between atoms: _161  and  _162
REMARK   72  A    between atoms: _161  and  _164
REMARK   73  A    between atoms: _164  and  _165
REMARK   74  A    between atoms: _168  and  _170
REMARK   75  A    between atoms: _170  and  _171
REMARK   76  A    between atoms: _170  and  _173
REMARK   77  A    between atoms: _173  and  _174
REMARK   78  A    between atoms: _174  and  _175
REMARK   79  A    between atoms: _180  and  _182
REMARK   80  A    between atoms: _182  and  _183
REMARK   81  A    between atoms: _182  and  _185
REMARK   82  A    between atoms: _185  and  _186
REMARK   83  A    between atoms: _192  and  _194
REMARK   84  A    between atoms: _194  and  _195
REMARK   85  A    between atoms: _194  and  _197
REMARK   86  A    between atoms: _200  and  _202
REMARK   87  A    between atoms: _202  and  _203
REMARK   88  A    between atoms: _202  and  _205
REMARK   89  A    between atoms: _205  and  _206
REMARK   90  A    between atoms: _211  and  _213
REMARK   91  A    between atoms: _213  and  _214
REMARK   92  A    between atoms: _213  and  _216
REMARK   93  A    between atoms: _216  and  _217
REMARK   94  A    between atoms: _219  and  _221
REMARK   95  A    between atoms: _221  and  _222
REMARK   96  A    between atoms: _221  and  _224
REMARK   97  A    between atoms: _224  and  _225
REMARK   98  A    between atoms: _225  and  _226
REMARK   99  A    between atoms: _226  and  _227
REMARK  100  A    between atoms: _227  and  _228
REMARK  101  A    between atoms: _232  and  _234
REMARK  102  A    between atoms: _234  and  _235
REMARK  103  A    between atoms: _234  and  _237
REMARK  104  A    between atoms: _237  and  _238
REMARK  105  A    between atoms: _241  and  _243
REMARK  106  A    between atoms: _243  and  _244
REMARK  107  A    between atoms: _247  and  _249
REMARK  108  A    between atoms: _249  and  _250
REMARK  109  A    between atoms: _249  and  _252
REMARK  110  A    between atoms: _255  and  _257
REMARK  111  A    between atoms: _257  and  _258
REMARK  112  A    between atoms: _257  and  _260
REMARK  113  A    between atoms: _260  and  _261
REMARK  114  A    between atoms: _261  and  _262
REMARK  115  A    between atoms: _265  and  _267
REMARK  116  A    between atoms: _267  and  _268
REMARK  117  A    between atoms: _267  and  _270
REMARK  118  A    between atoms: _270  and  _271
REMARK  119  A    between atoms: _271  and  _272
REMARK  120  A    between atoms: _274  and  _276
REMARK  121  A    between atoms: _276  and  _277
REMARK  122  A    between atoms: _276  and  _279
REMARK  123  A    between atoms: _279  and  _280
REMARK  124  A    between atoms: _280  and  _281
REMARK  125  A    between atoms: _284  and  _286
REMARK  126  A    between atoms: _286  and  _287
REMARK  127  A    between atoms: _289  and  _291
REMARK  128  A    between atoms: _291  and  _292
REMARK  129  A    between atoms: _291  and  _294
REMARK  130  A    between atoms: _294  and  _295
REMARK  131  A    between atoms: _295  and  _296
REMARK  132  A    between atoms: _296  and  _297
REMARK  133  A    between atoms: _306  and  _308
REMARK  134  A    between atoms: _308  and  _309
REMARK  135  A    between atoms: _308  and  _311
REMARK  136  A    between atoms: _311  and  _312
REMARK  137  A    between atoms: _314  and  _316
REMARK  138  A    between atoms: _316  and  _317
REMARK  139  A    between atoms: _316  and  _319
REMARK  140  A    between atoms: _319  and  _320
REMARK  141  A    between atoms: _323  and  _325
REMARK  142  A    between atoms: _325  and  _326
REMARK  143  A    between atoms: _325  and  _328
REMARK  144  A    between atoms: _328  and  _329
REMARK  145  A    between atoms: _331  and  _333
REMARK  146  A    between atoms: _333  and  _334
REMARK  147  A    between atoms: _333  and  _336
REMARK  148  A    between atoms: _336  and  _337
REMARK  149  A    between atoms: _340  and  _342
REMARK  150  A    between atoms: _342  and  _343
REMARK  151  A    between atoms: _342  and  _345
REMARK  152  A    between atoms: _345  and  _346
REMARK  153  A    between atoms: _351  and  _353
REMARK  154  A    between atoms: _353  and  _354
REMARK  155  A    between atoms: _357  and  _359
REMARK  156  A    between atoms: _359  and  _360
REMARK  157  A    between atoms: _359  and  _362
REMARK  158  A    between atoms: _362  and  _363
REMARK  159  A    between atoms: _366  and  _368
REMARK  160  A    between atoms: _368  and  _369
REMARK  161  A    between atoms: _368  and  _371
REMARK  162  A    between atoms: _371  and  _372
REMARK  163  A    between atoms: _372  and  _373
REMARK  164  A    between atoms: _373  and  _374
REMARK  165  A    between atoms: _374  and  _375
REMARK  166  A    between atoms: _379  and  _381
REMARK  167  A    between atoms: _381  and  _382
REMARK  168  A    between atoms: _385  and  _387
REMARK  169  A    between atoms: _387  and  _388
REMARK  170  A    between atoms: _390  and  _392
REMARK  171  A    between atoms: _392  and  _393
REMARK  172  A    between atoms: _392  and  _395
REMARK  173  A    between atoms: _395  and  _396
REMARK  174  A    between atoms: _398  and  _400
REMARK  175  A    between atoms: _400  and  _401
REMARK  176  A    between atoms: _400  and  _403
REMARK  177  A    between atoms: _403  and  _404
REMARK  178  A    between atoms: _410  and  _412
REMARK  179  A    between atoms: _412  and  _413
REMARK  180  A    between atoms: _412  and  _415
REMARK  181  A    between atoms: _415  and  _416
REMARK  182  A    between atoms: _419  and  _421
REMARK  183  A    between atoms: _421  and  _422
REMARK  184  A    between atoms: _421  and  _424
REMARK  185  A    between atoms: _424  and  _425
REMARK  186  A    between atoms: _428  and  _430
REMARK  187  A    between atoms: _430  and  _431
REMARK  188  A    between atoms: _430  and  _433
REMARK  189  A    between atoms: _433  and  _434
REMARK  190  A    between atoms: _437  and  _439
REMARK  191  A    between atoms: _439  and  _440
REMARK  192  A    between atoms: _439  and  _442
REMARK  193  A    between atoms: _442  and  _443
REMARK  194  A    between atoms: _446  and  _448
REMARK  195  A    between atoms: _448  and  _449
REMARK  196  A    between atoms: _448  and  _451
REMARK  197  A    between atoms: _451  and  _452
REMARK  198  A    between atoms: _454  and  _456
REMARK  199  A    between atoms: _456  and  _457
REMARK  200  A    between atoms: _460  and  _462
REMARK  201  A    between atoms: _462  and  _463
REMARK  202  A    between atoms: _462  and  _465
REMARK  203  A    between atoms: _465  and  _466
REMARK  204  A    between atoms: _472  and  _474
REMARK  205  A    between atoms: _474  and  _475
REMARK  206  A    between atoms: _474  and  _477
REMARK  207  A    between atoms: _477  and  _478
REMARK  208  A    between atoms: _481  and  _483
REMARK  209  A    between atoms: _483  and  _484
REMARK  210  A    between atoms: _483  and  _486
REMARK  211  A    between atoms: _486  and  _487
REMARK  212  A    between atoms: _492  and  _494
REMARK  213  A    between atoms: _494  and  _495
REMARK  214  A    between atoms: _494  and  _497
REMARK  215  A    between atoms: _497  and  _498
REMARK  216  A    between atoms: _504  and  _506
REMARK  217  A    between atoms: _506  and  _507
REMARK  218  A    between atoms: _506  and  _509
REMARK  219  A    between atoms: _509  and  _510
REMARK  220  A    between atoms: _514  and  _515
REMARK                            x       y       z     vdW  Elec       q    Type
REMARK                         _______ _______ _______ _____ _____    ______ ____
ROOT
ATOM      1  O   HOH     1      14.702  53.509 -43.401  0.00  0.00    +0.000 OA
ENDROOT
TORSDOF 0
REMARK  Name = ../refined-set-2016/4ynb/4ynb_pocket.pdb
REMARK  220 active torsions:
REMARK  status: ('A' for Active; 'I' for Inactive)
REMARK    1  A    between atoms: _1  and  _3
REMARK    2  A    between atoms: _3  and  _4
REMARK    3  A    between atoms: _6  and  _8
REMARK    4  A    between atoms: _8  and  _9
REMARK    5  A    between atoms: _12  and  _14
REMARK    6  A    between atoms: _14  and  _15
REMARK    7  A    between atoms: _14  and  _17
REMARK    8  A    between atoms: _17  and  _18
REMARK    9  A    between atoms: _18  and  _19
REMARK   10  A    between atoms: _21  and  _23
REMARK   11  A    between atoms: _23  and  _24
REMARK   12  A    between atoms: _23  and  _26
REMARK   13  A    between atoms: _26  and  _27
REMARK   14  A    between atoms: _27  and  _28
REMARK   15  A    between atoms: _31  and  _33
REMARK   16  A    between atoms: _33  and  _34
REMARK   17  A    between atoms: _33  and  _36
REMARK   18  A    between atoms: _36  and  _37
REMARK   19  A    between atoms: _37  and  _38
REMARK   20  A    between atoms: _41  and  _43
REMARK   21  A    between atoms: _43  and  _44
REMARK   22  A    between atoms: _43  and  _46
REMARK   23  A    between atoms: _46  and  _47
REMARK   24  A    between atoms: _49  and  _51
REMARK   25  A    between atoms: _51  and  _52
REMARK   26  A    between atoms: _51  and  _54
REMARK   27  A    between atoms: _54  and  _55
REMARK   28  A    between atoms: _55  and  _56
REMARK   29  A    between atoms: _56  and  _57
REMARK   30  A    between atoms: _57  and  _58
REMARK   31  A    between atoms: _62  and  _64
REMARK   32  A    between atoms: _64  and  _65
REMARK   33  A    between atoms: _64  and  _67
REMARK   34  A    between atoms: _67  and  _68
REMARK   35  A    between atoms: _71  and  _73
REMARK   36  A    between atoms: _73  and  _74
REMARK   37  A    between atoms: _76  and  _78
REMARK   38  A    between atoms: _78  and  _79
REMARK   39  A    between atoms: _78  and  _81
REMARK   40  A    between atoms: _81  and  _82
REMARK   41  A    between atoms: _88  and  _90
REMARK   42  A    between atoms: _90  and  _91
REMARK   43  A    between atoms: _93  and  _95
REMARK   44  A    between atoms: _95  and  _96
REMARK   45  A    between atoms: _95  and  _98
REMARK   46  A    between atoms: _101  and  _103
REMARK   47  A    between atoms: _103  and  _104
REMARK   48  A    between atoms: _107  and  _109
REMARK   49  A    between atoms: _109  and  _110
REMARK   50  A    between atoms: _112  and  _114
REMARK   51  A    between atoms: _114  and  _115
REMARK   52  A    between atoms: _114  and  _117
REMARK   53  A    between atoms: _117  and  _118
REMARK   54  A    between atoms: _120  and  _122
REMARK   55  A    between atoms: _122  and  _123
REMARK   56  A    between atoms: _122  and  _125
REMARK   57  A    between atoms: _125  and  _126
REMARK   58  A    between atoms: _129  and  _131
REMARK   59  A    between atoms: _131  and  _132
REMARK   60  A    between atoms: _131  and  _134
REMARK   61  A    between atoms: _134  and  _135
REMARK   62  A    between atoms: _140  and  _142
REMARK   63  A    between atoms: _142  and  _143
REMARK   64  A    between atoms: _146  and  _148
REMARK   65  A    between atoms: _148  and  _149
REMARK   66  A    between atoms: _148  and  _151
REMARK   67  A    between atoms: _151  and  _152
REMARK   68  A    between atoms: _154  and  _156
REMARK   69  A    between atoms: _156  and  _157
REMARK   70  A    between atoms: _159  and  _161
REMARK   71  A    between atoms: _161  and  _162
REMARK   72  A    between atoms: _161  and  _164
REMARK   73  A    between atoms: _164  and  _165
REMARK   74  A    between atoms: _168  and  _170
REMARK   75  A    between atoms: _170  and  _171
REMARK   76  A    between atoms: _170  and  _173
REMARK   77  A    between atoms: _173  and  _174
REMARK   78  A    between atoms: _174  and  _175
REMARK   79  A    between atoms: _180  and  _182
REMARK   80  A    between atoms: _182  and  _183
REMARK   81  A    between atoms: _182  and  _185
REMARK   82  A    between atoms: _185  and  _186
REMARK   83  A    between atoms: _192  and  _194
REMARK   84  A    between atoms: _194  and  _195
REMARK   85  A    between atoms: _194  and  _197
REMARK   86  A    between atoms: _200  and  _202
REMARK   87  A    between atoms: _202  and  _203
REMARK   88  A    between atoms: _202  and  _205
REMARK   89  A    between atoms: _205  and  _206
REMARK   90  A    between atoms: _211  and  _213
REMARK   91  A    between atoms: _213  and  _214
REMARK   92  A    between atoms: _213  and  _216
REMARK   93  A    between atoms: _216  and  _217
REMARK   94  A    between atoms: _219  and  _221
REMARK   95  A    between atoms: _221  and  _222
REMARK   96  A    between atoms: _221  and  _224
REMARK   97  A    between atoms: _224  and  _225
REMARK   98  A    between atoms: _225  and  _226
REMARK   99  A    between atoms: _226  and  _227
REMARK  100  A    between atoms: _227  and  _228
REMARK  101  A    between atoms: _232  and  _234
REMARK  102  A    between atoms: _234  and  _235
REMARK  103  A    between atoms: _234  and  _237
REMARK  104  A    between atoms: _237  and  _238
REMARK  105  A    between atoms: _241  and  _243
REMARK  106  A    between atoms: _243  and  _244
REMARK  107  A    between atoms: _247  and  _249
REMARK  108  A    between atoms: _249  and  _250
REMARK  109  A    between atoms: _249  and  _252
REMARK  110  A    between atoms: _255  and  _257
REMARK  111  A    between atoms: _257  and  _258
REMARK  112  A    between atoms: _257  and  _260
REMARK  113  A    between atoms: _260  and  _261
REMARK  114  A    between atoms: _261  and  _262
REMARK  115  A    between atoms: _265  and  _267
REMARK  116  A    between atoms: _267  and  _268
REMARK  117  A    between atoms: _267  and  _270
REMARK  118  A    between atoms: _270  and  _271
REMARK  119  A    between atoms: _271  and  _272
REMARK  120  A    between atoms: _274  and  _276
REMARK  121  A    between atoms: _276  and  _277
REMARK  122  A    between atoms: _276  and  _279
REMARK  123  A    between atoms: _279  and  _280
REMARK  124  A    between atoms: _280  and  _281
REMARK  125  A    between atoms: _284  and  _286
REMARK  126  A    between atoms: _286  and  _287
REMARK  127  A    between atoms: _289  and  _291
REMARK  128  A    between atoms: _291  and  _292
REMARK  129  A    between atoms: _291  and  _294
REMARK  130  A    between atoms: _294  and  _295
REMARK  131  A    between atoms: _295  and  _296
REMARK  132  A    between atoms: _296  and  _297
REMARK  133  A    between atoms: _306  and  _308
REMARK  134  A    between atoms: _308  and  _309
REMARK  135  A    between atoms: _308  and  _311
REMARK  136  A    between atoms: _311  and  _312
REMARK  137  A    between atoms: _314  and  _316
REMARK  138  A    between atoms: _316  and  _317
REMARK  139  A    between atoms: _316  and  _319
REMARK  140  A    between atoms: _319  and  _320
REMARK  141  A    between atoms: _323  and  _325
REMARK  142  A    between atoms: _325  and  _326
REMARK  143  A    between atoms: _325  and  _328
REMARK  144  A    between atoms: _328  and  _329
REMARK  145  A    between atoms: _331  and  _333
REMARK  146  A    between atoms: _333  and  _334
REMARK  147  A    between atoms: _333  and  _336
REMARK  148  A    between atoms: _336  and  _337
REMARK  149  A    between atoms: _340  and  _342
REMARK  150  A    between atoms: _342  and  _343
REMARK  151  A    between atoms: _342  and  _345
REMARK  152  A    between atoms: _345  and  _346
REMARK  153  A    between atoms: _351  and  _353
REMARK  154  A    between atoms: _353  and  _354
REMARK  155  A    between atoms: _357  and  _359
REMARK  156  A    between atoms: _359  and  _360
REMARK  157  A    between atoms: _359  and  _362
REMARK  158  A    between atoms: _362  and  _363
REMARK  159  A    between atoms: _366  and  _368
REMARK  160  A    between atoms: _368  and  _369
REMARK  161  A    between atoms: _368  and  _371
REMARK  162  A    between atoms: _371  and  _372
REMARK  163  A    between atoms: _372  and  _373
REMARK  164  A    between atoms: _373  and  _374
REMARK  165  A    between atoms: _374  and  _375
REMARK  166  A    between atoms: _379  and  _381
REMARK  167  A    between atoms: _381  and  _382
REMARK  168  A    between atoms: _385  and  _387
REMARK  169  A    between atoms: _387  and  _388
REMARK  170  A    between atoms: _390  and  _392
REMARK  171  A    between atoms: _392  and  _393
REMARK  172  A    between atoms: _392  and  _395
REMARK  173  A    between atoms: _395  and  _396
REMARK  174  A    between atoms: _398  and  _400
REMARK  175  A    between atoms: _400  and  _401
REMARK  176  A    between atoms: _400  and  _403
REMARK  177  A    between atoms: _403  and  _404
REMARK  178  A    between atoms: _410  and  _412
REMARK  179  A    between atoms: _412  and  _413
REMARK  180  A    between atoms: _412  and  _415
REMARK  181  A    between atoms: _415  and  _416
REMARK  182  A    between atoms: _419  and  _421
REMARK  183  A    between atoms: _421  and  _422
REMARK  184  A    between atoms: _421  and  _424
REMARK  185  A    between atoms: _424  and  _425
REMARK  186  A    between atoms: _428  and  _430
REMARK  187  A    between atoms: _430  and  _431
REMARK  188  A    between atoms: _430  and  _433
REMARK  189  A    between atoms: _433  and  _434
REMARK  190  A    between atoms: _437  and  _439
REMARK  191  A    between atoms: _439  and  _440
REMARK  192  A    between atoms: _439  and  _442
REMARK  193  A    between atoms: _442  and  _443
REMARK  194  A    between atoms: _446  and  _448
REMARK  195  A    between atoms: _448  and  _449
REMARK  196  A    between atoms: _448  and  _451
REMARK  197  A    between atoms: _451  and  _452
REMARK  198  A    between atoms: _454  and  _456
REMARK  199  A    between atoms: _456  and  _457
REMARK  200  A    between atoms: _460  and  _462
REMARK  201  A    between atoms: _462  and  _463
REMARK  202  A    between atoms: _462  and  _465
REMARK  203  A    between atoms: _465  and  _466
REMARK  204  A    between atoms: _472  and  _474
REMARK  205  A    between atoms: _474  and  _475
REMARK  206  A    between atoms: _474  and  _477
REMARK  207  A    between atoms: _477  and  _478
REMARK  208  A    between atoms: _481  and  _483
REMARK  209  A    between atoms: _483  and  _484
REMARK  210  A    between atoms: _483  and  _486
REMARK  211  A    between atoms: _486  and  _487
REMARK  212  A    between atoms: _492  and  _494
REMARK  213  A    between atoms: _494  and  _495
REMARK  214  A    between atoms: _494  and  _497
REMARK  215  A    between atoms: _497  and  _498
REMARK  216  A    between atoms: _504  and  _506
REMARK  217  A    between atoms: _506  and  _507
REMARK  218  A    between atoms: _506  and  _509
REMARK  219  A    between atoms: _509  and  _510
REMARK  220  A    between atoms: _514  and  _515
REMARK                            x       y       z     vdW  Elec       q    Type
REMARK                         _______ _______ _______ _____ _____    ______ ____
ROOT
ATOM      1  O   HOH     1       4.808  50.416 -44.097  0.00  0.00    +0.000 OA
ENDROOT
TORSDOF 0
REMARK  Name = ../refined-set-2016/4ynb/4ynb_pocket.pdb
REMARK  220 active torsions:
REMARK  status: ('A' for Active; 'I' for Inactive)
REMARK    1  A    between atoms: _1  and  _3
REMARK    2  A    between atoms: _3  and  _4
REMARK    3  A    between atoms: _6  and  _8
REMARK    4  A    between atoms: _8  and  _9
REMARK    5  A    between atoms: _12  and  _14
REMARK    6  A    between atoms: _14  and  _15
REMARK    7  A    between atoms: _14  and  _17
REMARK    8  A    between atoms: _17  and  _18
REMARK    9  A    between atoms: _18  and  _19
REMARK   10  A    between atoms: _21  and  _23
REMARK   11  A    between atoms: _23  and  _24
REMARK   12  A    between atoms: _23  and  _26
REMARK   13  A    between atoms: _26  and  _27
REMARK   14  A    between atoms: _27  and  _28
REMARK   15  A    between atoms: _31  and  _33
REMARK   16  A    between atoms: _33  and  _34
REMARK   17  A    between atoms: _33  and  _36
REMARK   18  A    between atoms: _36  and  _37
REMARK   19  A    between atoms: _37  and  _38
REMARK   20  A    between atoms: _41  and  _43
REMARK   21  A    between atoms: _43  and  _44
REMARK   22  A    between atoms: _43  and  _46
REMARK   23  A    between atoms: _46  and  _47
REMARK   24  A    between atoms: _49  and  _51
REMARK   25  A    between atoms: _51  and  _52
REMARK   26  A    between atoms: _51  and  _54
REMARK   27  A    between atoms: _54  and  _55
REMARK   28  A    between atoms: _55  and  _56
REMARK   29  A    between atoms: _56  and  _57
REMARK   30  A    between atoms: _57  and  _58
REMARK   31  A    between atoms: _62  and  _64
REMARK   32  A    between atoms: _64  and  _65
REMARK   33  A    between atoms: _64  and  _67
REMARK   34  A    between atoms: _67  and  _68
REMARK   35  A    between atoms: _71  and  _73
REMARK   36  A    between atoms: _73  and  _74
REMARK   37  A    between atoms: _76  and  _78
REMARK   38  A    between atoms: _78  and  _79
REMARK   39  A    between atoms: _78  and  _81
REMARK   40  A    between atoms: _81  and  _82
REMARK   41  A    between atoms: _88  and  _90
REMARK   42  A    between atoms: _90  and  _91
REMARK   43  A    between atoms: _93  and  _95
REMARK   44  A    between atoms: _95  and  _96
REMARK   45  A    between atoms: _95  and  _98
REMARK   46  A    between atoms: _101  and  _103
REMARK   47  A    between atoms: _103  and  _104
REMARK   48  A    between atoms: _107  and  _109
REMARK   49  A    between atoms: _109  and  _110
REMARK   50  A    between atoms: _112  and  _114
REMARK   51  A    between atoms: _114  and  _115
REMARK   52  A    between atoms: _114  and  _117
REMARK   53  A    between atoms: _117  and  _118
REMARK   54  A    between atoms: _120  and  _122
REMARK   55  A    between atoms: _122  and  _123
REMARK   56  A    between atoms: _122  and  _125
REMARK   57  A    between atoms: _125  and  _126
REMARK   58  A    between atoms: _129  and  _131
REMARK   59  A    between atoms: _131  and  _132
REMARK   60  A    between atoms: _131  and  _134
REMARK   61  A    between atoms: _134  and  _135
REMARK   62  A    between atoms: _140  and  _142
REMARK   63  A    between atoms: _142  and  _143
REMARK   64  A    between atoms: _146  and  _148
REMARK   65  A    between atoms: _148  and  _149
REMARK   66  A    between atoms: _148  and  _151
REMARK   67  A    between atoms: _151  and  _152
REMARK   68  A    between atoms: _154  and  _156
REMARK   69  A    between atoms: _156  and  _157
REMARK   70  A    between atoms: _159  and  _161
REMARK   71  A    between atoms: _161  and  _162
REMARK   72  A    between atoms: _161  and  _164
REMARK   73  A    between atoms: _164  and  _165
REMARK   74  A    between atoms: _168  and  _170
REMARK   75  A    between atoms: _170  and  _171
REMARK   76  A    between atoms: _170  and  _173
REMARK   77  A    between atoms: _173  and  _174
REMARK   78  A    between atoms: _174  and  _175
REMARK   79  A    between atoms: _180  and  _182
REMARK   80  A    between atoms: _182  and  _183
REMARK   81  A    between atoms: _182  and  _185
REMARK   82  A    between atoms: _185  and  _186
REMARK   83  A    between atoms: _192  and  _194
REMARK   84  A    between atoms: _194  and  _195
REMARK   85  A    between atoms: _194  and  _197
REMARK   86  A    between atoms: _200  and  _202
REMARK   87  A    between atoms: _202  and  _203
REMARK   88  A    between atoms: _202  and  _205
REMARK   89  A    between atoms: _205  and  _206
REMARK   90  A    between atoms: _211  and  _213
REMARK   91  A    between atoms: _213  and  _214
REMARK   92  A    between atoms: _213  and  _216
REMARK   93  A    between atoms: _216  and  _217
REMARK   94  A    between atoms: _219  and  _221
REMARK   95  A    between atoms: _221  and  _222
REMARK   96  A    between atoms: _221  and  _224
REMARK   97  A    between atoms: _224  and  _225
REMARK   98  A    between atoms: _225  and  _226
REMARK   99  A    between atoms: _226  and  _227
REMARK  100  A    between atoms: _227  and  _228
REMARK  101  A    between atoms: _232  and  _234
REMARK  102  A    between atoms: _234  and  _235
REMARK  103  A    between atoms: _234  and  _237
REMARK  104  A    between atoms: _237  and  _238
REMARK  105  A    between atoms: _241  and  _243
REMARK  106  A    between atoms: _243  and  _244
REMARK  107  A    between atoms: _247  and  _249
REMARK  108  A    between atoms: _249  and  _250
REMARK  109  A    between atoms: _249  and  _252
REMARK  110  A    between atoms: _255  and  _257
REMARK  111  A    between atoms: _257  and  _258
REMARK  112  A    between atoms: _257  and  _260
REMARK  113  A    between atoms: _260  and  _261
REMARK  114  A    between atoms: _261  and  _262
REMARK  115  A    between atoms: _265  and  _267
REMARK  116  A    between atoms: _267  and  _268
REMARK  117  A    between atoms: _267  and  _270
REMARK  118  A    between atoms: _270  and  _271
REMARK  119  A    between atoms: _271  and  _272
REMARK  120  A    between atoms: _274  and  _276
REMARK  121  A    between atoms: _276  and  _277
REMARK  122  A    between atoms: _276  and  _279
REMARK  123  A    between atoms: _279  and  _280
REMARK  124  A    between atoms: _280  and  _281
REMARK  125  A    between atoms: _284  and  _286
REMARK  126  A    between atoms: _286  and  _287
REMARK  127  A    between atoms: _289  and  _291
REMARK  128  A    between atoms: _291  and  _292
REMARK  129  A    between atoms: _291  and  _294
REMARK  130  A    between atoms: _294  and  _295
REMARK  131  A    between atoms: _295  and  _296
REMARK  132  A    between atoms: _296  and  _297
REMARK  133  A    between atoms: _306  and  _308
REMARK  134  A    between atoms: _308  and  _309
REMARK  135  A    between atoms: _308  and  _311
REMARK  136  A    between atoms: _311  and  _312
REMARK  137  A    between atoms: _314  and  _316
REMARK  138  A    between atoms: _316  and  _317
REMARK  139  A    between atoms: _316  and  _319
REMARK  140  A    between atoms: _319  and  _320
REMARK  141  A    between atoms: _323  and  _325
REMARK  142  A    between atoms: _325  and  _326
REMARK  143  A    between atoms: _325  and  _328
REMARK  144  A    between atoms: _328  and  _329
REMARK  145  A    between atoms: _331  and  _333
REMARK  146  A    between atoms: _333  and  _334
REMARK  147  A    between atoms: _333  and  _336
REMARK  148  A    between atoms: _336  and  _337
REMARK  149  A    between atoms: _340  and  _342
REMARK  150  A    between atoms: _342  and  _343
REMARK  151  A    between atoms: _342  and  _345
REMARK  152  A    between atoms: _345  and  _346
REMARK  153  A    between atoms: _351  and  _353
REMARK  154  A    between atoms: _353  and  _354
REMARK  155  A    between atoms: _357  and  _359
REMARK  156  A    between atoms: _359  and  _360
REMARK  157  A    between atoms: _359  and  _362
REMARK  158  A    between atoms: _362  and  _363
REMARK  159  A    between atoms: _366  and  _368
REMARK  160  A    between atoms: _368  and  _369
REMARK  161  A    between atoms: _368  and  _371
REMARK  162  A    between atoms: _371  and  _372
REMARK  163  A    between atoms: _372  and  _373
REMARK  164  A    between atoms: _373  and  _374
REMARK  165  A    between atoms: _374  and  _375
REMARK  166  A    between atoms: _379  and  _381
REMARK  167  A    between atoms: _381  and  _382
REMARK  168  A    between atoms: _385  and  _387
REMARK  169  A    between atoms: _387  and  _388
REMARK  170  A    between atoms: _390  and  _392
REMARK  171  A    between atoms: _392  and  _393
REMARK  172  A    between atoms: _392  and  _395
REMARK  173  A    between atoms: _395  and  _396
REMARK  174  A    between atoms: _398  and  _400
REMARK  175  A    between atoms: _400  and  _401
REMARK  176  A    between atoms: _400  and  _403
REMARK  177  A    between atoms: _403  and  _404
REMARK  178  A    between atoms: _410  and  _412
REMARK  179  A    between atoms: _412  and  _413
REMARK  180  A    between atoms: _412  and  _415
REMARK  181  A    between atoms: _415  and  _416
REMARK  182  A    between atoms: _419  and  _421
REMARK  183  A    between atoms: _421  and  _422
REMARK  184  A    between atoms: _421  and  _424
REMARK  185  A    between atoms: _424  and  _425
REMARK  186  A    between atoms: _428  and  _430
REMARK  187  A    between atoms: _430  and  _431
REMARK  188  A    between atoms: _430  and  _433
REMARK  189  A    between atoms: _433  and  _434
REMARK  190  A    between atoms: _437  and  _439
REMARK  191  A    between atoms: _439  and  _440
REMARK  192  A    between atoms: _439  and  _442
REMARK  193  A    between atoms: _442  and  _443
REMARK  194  A    between atoms: _446  and  _448
REMARK  195  A    between atoms: _448  and  _449
REMARK  196  A    between atoms: _448  and  _451
REMARK  197  A    between atoms: _451  and  _452
REMARK  198  A    between atoms: _454  and  _456
REMARK  199  A    between atoms: _456  and  _457
REMARK  200  A    between atoms: _460  and  _462
REMARK  201  A    between atoms: _462  and  _463
REMARK  202  A    between atoms: _462  and  _465
REMARK  203  A    between atoms: _465  and  _466
REMARK  204  A    between atoms: _472  and  _474
REMARK  205  A    between atoms: _474  and  _475
REMARK  206  A    between atoms: _474  and  _477
REMARK  207  A    between atoms: _477  and  _478
REMARK  208  A    between atoms: _481  and  _483
REMARK  209  A    between atoms: _483  and  _484
REMARK  210  A    between atoms: _483  and  _486
REMARK  211  A    between atoms: _486  and  _487
REMARK  212  A    between atoms: _492  and  _494
REMARK  213  A    between atoms: _494  and  _495
REMARK  214  A    between atoms: _494  and  _497
REMARK  215  A    between atoms: _497  and  _498
REMARK  216  A    between atoms: _504  and  _506
REMARK  217  A    between atoms: _506  and  _507
REMARK  218  A    between atoms: _506  and  _509
REMARK  219  A    between atoms: _509  and  _510
REMARK  220  A    between atoms: _514  and  _515
REMARK                            x       y       z     vdW  Elec       q    Type
REMARK                         _______ _______ _______ _____ _____    ______ ____
ROOT
ATOM      1  O   HOH     1      17.662  40.024 -36.897  0.00  0.00    +0.000 OA
ENDROOT
TORSDOF 0
REMARK  Name = ../refined-set-2016/4ynb/4ynb_pocket.pdb
REMARK  220 active torsions:
REMARK  status: ('A' for Active; 'I' for Inactive)
REMARK    1  A    between atoms: _1  and  _3
REMARK    2  A    between atoms: _3  and  _4
REMARK    3  A    between atoms: _6  and  _8
REMARK    4  A    between atoms: _8  and  _9
REMARK    5  A    between atoms: _12  and  _14
REMARK    6  A    between atoms: _14  and  _15
REMARK    7  A    between atoms: _14  and  _17
REMARK    8  A    between atoms: _17  and  _18
REMARK    9  A    between atoms: _18  and  _19
REMARK   10  A    between atoms: _21  and  _23
REMARK   11  A    between atoms: _23  and  _24
REMARK   12  A    between atoms: _23  and  _26
REMARK   13  A    between atoms: _26  and  _27
REMARK   14  A    between atoms: _27  and  _28
REMARK   15  A    between atoms: _31  and  _33
REMARK   16  A    between atoms: _33  and  _34
REMARK   17  A    between atoms: _33  and  _36
REMARK   18  A    between atoms: _36  and  _37
REMARK   19  A    between atoms: _37  and  _38
REMARK   20  A    between atoms: _41  and  _43
REMARK   21  A    between atoms: _43  and  _44
REMARK   22  A    between atoms: _43  and  _46
REMARK   23  A    between atoms: _46  and  _47
REMARK   24  A    between atoms: _49  and  _51
REMARK   25  A    between atoms: _51  and  _52
REMARK   26  A    between atoms: _51  and  _54
REMARK   27  A    between atoms: _54  and  _55
REMARK   28  A    between atoms: _55  and  _56
REMARK   29  A    between atoms: _56  and  _57
REMARK   30  A    between atoms: _57  and  _58
REMARK   31  A    between atoms: _62  and  _64
REMARK   32  A    between atoms: _64  and  _65
REMARK   33  A    between atoms: _64  and  _67
REMARK   34  A    between atoms: _67  and  _68
REMARK   35  A    between atoms: _71  and  _73
REMARK   36  A    between atoms: _73  and  _74
REMARK   37  A    between atoms: _76  and  _78
REMARK   38  A    between atoms: _78  and  _79
REMARK   39  A    between atoms: _78  and  _81
REMARK   40  A    between atoms: _81  and  _82
REMARK   41  A    between atoms: _88  and  _90
REMARK   42  A    between atoms: _90  and  _91
REMARK   43  A    between atoms: _93  and  _95
REMARK   44  A    between atoms: _95  and  _96
REMARK   45  A    between atoms: _95  and  _98
REMARK   46  A    between atoms: _101  and  _103
REMARK   47  A    between atoms: _103  and  _104
REMARK   48  A    between atoms: _107  and  _109
REMARK   49  A    between atoms: _109  and  _110
REMARK   50  A    between atoms: _112  and  _114
REMARK   51  A    between atoms: _114  and  _115
REMARK   52  A    between atoms: _114  and  _117
REMARK   53  A    between atoms: _117  and  _118
REMARK   54  A    between atoms: _120  and  _122
REMARK   55  A    between atoms: _122  and  _123
REMARK   56  A    between atoms: _122  and  _125
REMARK   57  A    between atoms: _125  and  _126
REMARK   58  A    between atoms: _129  and  _131
REMARK   59  A    between atoms: _131  and  _132
REMARK   60  A    between atoms: _131  and  _134
REMARK   61  A    between atoms: _134  and  _135
REMARK   62  A    between atoms: _140  and  _142
REMARK   63  A    between atoms: _142  and  _143
REMARK   64  A    between atoms: _146  and  _148
REMARK   65  A    between atoms: _148  and  _149
REMARK   66  A    between atoms: _148  and  _151
REMARK   67  A    between atoms: _151  and  _152
REMARK   68  A    between atoms: _154  and  _156
REMARK   69  A    between atoms: _156  and  _157
REMARK   70  A    between atoms: _159  and  _161
REMARK   71  A    between atoms: _161  and  _162
REMARK   72  A    between atoms: _161  and  _164
REMARK   73  A    between atoms: _164  and  _165
REMARK   74  A    between atoms: _168  and  _170
REMARK   75  A    between atoms: _170  and  _171
REMARK   76  A    between atoms: _170  and  _173
REMARK   77  A    between atoms: _173  and  _174
REMARK   78  A    between atoms: _174  and  _175
REMARK   79  A    between atoms: _180  and  _182
REMARK   80  A    between atoms: _182  and  _183
REMARK   81  A    between atoms: _182  and  _185
REMARK   82  A    between atoms: _185  and  _186
REMARK   83  A    between atoms: _192  and  _194
REMARK   84  A    between atoms: _194  and  _195
REMARK   85  A    between atoms: _194  and  _197
REMARK   86  A    between atoms: _200  and  _202
REMARK   87  A    between atoms: _202  and  _203
REMARK   88  A    between atoms: _202  and  _205
REMARK   89  A    between atoms: _205  and  _206
REMARK   90  A    between atoms: _211  and  _213
REMARK   91  A    between atoms: _213  and  _214
REMARK   92  A    between atoms: _213  and  _216
REMARK   93  A    between atoms: _216  and  _217
REMARK   94  A    between atoms: _219  and  _221
REMARK   95  A    between atoms: _221  and  _222
REMARK   96  A    between atoms: _221  and  _224
REMARK   97  A    between atoms: _224  and  _225
REMARK   98  A    between atoms: _225  and  _226
REMARK   99  A    between atoms: _226  and  _227
REMARK  100  A    between atoms: _227  and  _228
REMARK  101  A    between atoms: _232  and  _234
REMARK  102  A    between atoms: _234  and  _235
REMARK  103  A    between atoms: _234  and  _237
REMARK  104  A    between atoms: _237  and  _238
REMARK  105  A    between atoms: _241  and  _243
REMARK  106  A    between atoms: _243  and  _244
REMARK  107  A    between atoms: _247  and  _249
REMARK  108  A    between atoms: _249  and  _250
REMARK  109  A    between atoms: _249  and  _252
REMARK  110  A    between atoms: _255  and  _257
REMARK  111  A    between atoms: _257  and  _258
REMARK  112  A    between atoms: _257  and  _260
REMARK  113  A    between atoms: _260  and  _261
REMARK  114  A    between atoms: _261  and  _262
REMARK  115  A    between atoms: _265  and  _267
REMARK  116  A    between atoms: _267  and  _268
REMARK  117  A    between atoms: _267  and  _270
REMARK  118  A    between atoms: _270  and  _271
REMARK  119  A    between atoms: _271  and  _272
REMARK  120  A    between atoms: _274  and  _276
REMARK  121  A    between atoms: _276  and  _277
REMARK  122  A    between atoms: _276  and  _279
REMARK  123  A    between atoms: _279  and  _280
REMARK  124  A    between atoms: _280  and  _281
REMARK  125  A    between atoms: _284  and  _286
REMARK  126  A    between atoms: _286  and  _287
REMARK  127  A    between atoms: _289  and  _291
REMARK  128  A    between atoms: _291  and  _292
REMARK  129  A    between atoms: _291  and  _294
REMARK  130  A    between atoms: _294  and  _295
REMARK  131  A    between atoms: _295  and  _296
REMARK  132  A    between atoms: _296  and  _297
REMARK  133  A    between atoms: _306  and  _308
REMARK  134  A    between atoms: _308  and  _309
REMARK  135  A    between atoms: _308  and  _311
REMARK  136  A    between atoms: _311  and  _312
REMARK  137  A    between atoms: _314  and  _316
REMARK  138  A    between atoms: _316  and  _317
REMARK  139  A    between atoms: _316  and  _319
REMARK  140  A    between atoms: _319  and  _320
REMARK  141  A    between atoms: _323  and  _325
REMARK  142  A    between atoms: _325  and  _326
REMARK  143  A    between atoms: _325  and  _328
REMARK  144  A    between atoms: _328  and  _329
REMARK  145  A    between atoms: _331  and  _333
REMARK  146  A    between atoms: _333  and  _334
REMARK  147  A    between atoms: _333  and  _336
REMARK  148  A    between atoms: _336  and  _337
REMARK  149  A    between atoms: _340  and  _342
REMARK  150  A    between atoms: _342  and  _343
REMARK  151  A    between atoms: _342  and  _345
REMARK  152  A    between atoms: _345  and  _346
REMARK  153  A    between atoms: _351  and  _353
REMARK  154  A    between atoms: _353  and  _354
REMARK  155  A    between atoms: _357  and  _359
REMARK  156  A    between atoms: _359  and  _360
REMARK  157  A    between atoms: _359  and  _362
REMARK  158  A    between atoms: _362  and  _363
REMARK  159  A    between atoms: _366  and  _368
REMARK  160  A    between atoms: _368  and  _369
REMARK  161  A    between atoms: _368  and  _371
REMARK  162  A    between atoms: _371  and  _372
REMARK  163  A    between atoms: _372  and  _373
REMARK  164  A    between atoms: _373  and  _374
REMARK  165  A    between atoms: _374  and  _375
REMARK  166  A    between atoms: _379  and  _381
REMARK  167  A    between atoms: _381  and  _382
REMARK  168  A    between atoms: _385  and  _387
REMARK  169  A    between atoms: _387  and  _388
REMARK  170  A    between atoms: _390  and  _392
REMARK  171  A    between atoms: _392  and  _393
REMARK  172  A    between atoms: _392  and  _395
REMARK  173  A    between atoms: _395  and  _396
REMARK  174  A    between atoms: _398  and  _400
REMARK  175  A    between atoms: _400  and  _401
REMARK  176  A    between atoms: _400  and  _403
REMARK  177  A    between atoms: _403  and  _404
REMARK  178  A    between atoms: _410  and  _412
REMARK  179  A    between atoms: _412  and  _413
REMARK  180  A    between atoms: _412  and  _415
REMARK  181  A    between atoms: _415  and  _416
REMARK  182  A    between atoms: _419  and  _421
REMARK  183  A    between atoms: _421  and  _422
REMARK  184  A    between atoms: _421  and  _424
REMARK  185  A    between atoms: _424  and  _425
REMARK  186  A    between atoms: _428  and  _430
REMARK  187  A    between atoms: _430  and  _431
REMARK  188  A    between atoms: _430  and  _433
REMARK  189  A    between atoms: _433  and  _434
REMARK  190  A    between atoms: _437  and  _439
REMARK  191  A    between atoms: _439  and  _440
REMARK  192  A    between atoms: _439  and  _442
REMARK  193  A    between atoms: _442  and  _443
REMARK  194  A    between atoms: _446  and  _448
REMARK  195  A    between atoms: _448  and  _449
REMARK  196  A    between atoms: _448  and  _451
REMARK  197  A    between atoms: _451  and  _452
REMARK  198  A    between atoms: _454  and  _456
REMARK  199  A    between atoms: _456  and  _457
REMARK  200  A    between atoms: _460  and  _462
REMARK  201  A    between atoms: _462  and  _463
REMARK  202  A    between atoms: _462  and  _465
REMARK  203  A    between atoms: _465  and  _466
REMARK  204  A    between atoms: _472  and  _474
REMARK  205  A    between atoms: _474  and  _475
REMARK  206  A    between atoms: _474  and  _477
REMARK  207  A    between atoms: _477  and  _478
REMARK  208  A    between atoms: _481  and  _483
REMARK  209  A    between atoms: _483  and  _484
REMARK  210  A    between atoms: _483  and  _486
REMARK  211  A    between atoms: _486  and  _487
REMARK  212  A    between atoms: _492  and  _494
REMARK  213  A    between atoms: _494  and  _495
REMARK  214  A    between atoms: _494  and  _497
REMARK  215  A    between atoms: _497  and  _498
REMARK  216  A    between atoms: _504  and  _506
REMARK  217  A    between atoms: _506  and  _507
REMARK  218  A    between atoms: _506  and  _509
REMARK  219  A    between atoms: _509  and  _510
REMARK  220  A    between atoms: _514  and  _515
REMARK                            x       y       z     vdW  Elec       q    Type
REMARK                         _______ _______ _______ _____ _____    ______ ____
ROOT
ATOM      1  O   HOH     1      10.757  44.805 -31.575  0.00  0.00    +0.000 OA
ENDROOT
TORSDOF 0
REMARK  Name = ../refined-set-2016/4ynb/4ynb_pocket.pdb
REMARK  220 active torsions:
REMARK  status: ('A' for Active; 'I' for Inactive)
REMARK    1  A    between atoms: _1  and  _3
REMARK    2  A    between atoms: _3  and  _4
REMARK    3  A    between atoms: _6  and  _8
REMARK    4  A    between atoms: _8  and  _9
REMARK    5  A    between atoms: _12  and  _14
REMARK    6  A    between atoms: _14  and  _15
REMARK    7  A    between atoms: _14  and  _17
REMARK    8  A    between atoms: _17  and  _18
REMARK    9  A    between atoms: _18  and  _19
REMARK   10  A    between atoms: _21  and  _23
REMARK   11  A    between atoms: _23  and  _24
REMARK   12  A    between atoms: _23  and  _26
REMARK   13  A    between atoms: _26  and  _27
REMARK   14  A    between atoms: _27  and  _28
REMARK   15  A    between atoms: _31  and  _33
REMARK   16  A    between atoms: _33  and  _34
REMARK   17  A    between atoms: _33  and  _36
REMARK   18  A    between atoms: _36  and  _37
REMARK   19  A    between atoms: _37  and  _38
REMARK   20  A    between atoms: _41  and  _43
REMARK   21  A    between atoms: _43  and  _44
REMARK   22  A    between atoms: _43  and  _46
REMARK   23  A    between atoms: _46  and  _47
REMARK   24  A    between atoms: _49  and  _51
REMARK   25  A    between atoms: _51  and  _52
REMARK   26  A    between atoms: _51  and  _54
REMARK   27  A    between atoms: _54  and  _55
REMARK   28  A    between atoms: _55  and  _56
REMARK   29  A    between atoms: _56  and  _57
REMARK   30  A    between atoms: _57  and  _58
REMARK   31  A    between atoms: _62  and  _64
REMARK   32  A    between atoms: _64  and  _65
REMARK   33  A    between atoms: _64  and  _67
REMARK   34  A    between atoms: _67  and  _68
REMARK   35  A    between atoms: _71  and  _73
REMARK   36  A    between atoms: _73  and  _74
REMARK   37  A    between atoms: _76  and  _78
REMARK   38  A    between atoms: _78  and  _79
REMARK   39  A    between atoms: _78  and  _81
REMARK   40  A    between atoms: _81  and  _82
REMARK   41  A    between atoms: _88  and  _90
REMARK   42  A    between atoms: _90  and  _91
REMARK   43  A    between atoms: _93  and  _95
REMARK   44  A    between atoms: _95  and  _96
REMARK   45  A    between atoms: _95  and  _98
REMARK   46  A    between atoms: _101  and  _103
REMARK   47  A    between atoms: _103  and  _104
REMARK   48  A    between atoms: _107  and  _109
REMARK   49  A    between atoms: _109  and  _110
REMARK   50  A    between atoms: _112  and  _114
REMARK   51  A    between atoms: _114  and  _115
REMARK   52  A    between atoms: _114  and  _117
REMARK   53  A    between atoms: _117  and  _118
REMARK   54  A    between atoms: _120  and  _122
REMARK   55  A    between atoms: _122  and  _123
REMARK   56  A    between atoms: _122  and  _125
REMARK   57  A    between atoms: _125  and  _126
REMARK   58  A    between atoms: _129  and  _131
REMARK   59  A    between atoms: _131  and  _132
REMARK   60  A    between atoms: _131  and  _134
REMARK   61  A    between atoms: _134  and  _135
REMARK   62  A    between atoms: _140  and  _142
REMARK   63  A    between atoms: _142  and  _143
REMARK   64  A    between atoms: _146  and  _148
REMARK   65  A    between atoms: _148  and  _149
REMARK   66  A    between atoms: _148  and  _151
REMARK   67  A    between atoms: _151  and  _152
REMARK   68  A    between atoms: _154  and  _156
REMARK   69  A    between atoms: _156  and  _157
REMARK   70  A    between atoms: _159  and  _161
REMARK   71  A    between atoms: _161  and  _162
REMARK   72  A    between atoms: _161  and  _164
REMARK   73  A    between atoms: _164  and  _165
REMARK   74  A    between atoms: _168  and  _170
REMARK   75  A    between atoms: _170  and  _171
REMARK   76  A    between atoms: _170  and  _173
REMARK   77  A    between atoms: _173  and  _174
REMARK   78  A    between atoms: _174  and  _175
REMARK   79  A    between atoms: _180  and  _182
REMARK   80  A    between atoms: _182  and  _183
REMARK   81  A    between atoms: _182  and  _185
REMARK   82  A    between atoms: _185  and  _186
REMARK   83  A    between atoms: _192  and  _194
REMARK   84  A    between atoms: _194  and  _195
REMARK   85  A    between atoms: _194  and  _197
REMARK   86  A    between atoms: _200  and  _202
REMARK   87  A    between atoms: _202  and  _203
REMARK   88  A    between atoms: _202  and  _205
REMARK   89  A    between atoms: _205  and  _206
REMARK   90  A    between atoms: _211  and  _213
REMARK   91  A    between atoms: _213  and  _214
REMARK   92  A    between atoms: _213  and  _216
REMARK   93  A    between atoms: _216  and  _217
REMARK   94  A    between atoms: _219  and  _221
REMARK   95  A    between atoms: _221  and  _222
REMARK   96  A    between atoms: _221  and  _224
REMARK   97  A    between atoms: _224  and  _225
REMARK   98  A    between atoms: _225  and  _226
REMARK   99  A    between atoms: _226  and  _227
REMARK  100  A    between atoms: _227  and  _228
REMARK  101  A    between atoms: _232  and  _234
REMARK  102  A    between atoms: _234  and  _235
REMARK  103  A    between atoms: _234  and  _237
REMARK  104  A    between atoms: _237  and  _238
REMARK  105  A    between atoms: _241  and  _243
REMARK  106  A    between atoms: _243  and  _244
REMARK  107  A    between atoms: _247  and  _249
REMARK  108  A    between atoms: _249  and  _250
REMARK  109  A    between atoms: _249  and  _252
REMARK  110  A    between atoms: _255  and  _257
REMARK  111  A    between atoms: _257  and  _258
REMARK  112  A    between atoms: _257  and  _260
REMARK  113  A    between atoms: _260  and  _261
REMARK  114  A    between atoms: _261  and  _262
REMARK  115  A    between atoms: _265  and  _267
REMARK  116  A    between atoms: _267  and  _268
REMARK  117  A    between atoms: _267  and  _270
REMARK  118  A    between atoms: _270  and  _271
REMARK  119  A    between atoms: _271  and  _272
REMARK  120  A    between atoms: _274  and  _276
REMARK  121  A    between atoms: _276  and  _277
REMARK  122  A    between atoms: _276  and  _279
REMARK  123  A    between atoms: _279  and  _280
REMARK  124  A    between atoms: _280  and  _281
REMARK  125  A    between atoms: _284  and  _286
REMARK  126  A    between atoms: _286  and  _287
REMARK  127  A    between atoms: _289  and  _291
REMARK  128  A    between atoms: _291  and  _292
REMARK  129  A    between atoms: _291  and  _294
REMARK  130  A    between atoms: _294  and  _295
REMARK  131  A    between atoms: _295  and  _296
REMARK  132  A    between atoms: _296  and  _297
REMARK  133  A    between atoms: _306  and  _308
REMARK  134  A    between atoms: _308  and  _309
REMARK  135  A    between atoms: _308  and  _311
REMARK  136  A    between atoms: _311  and  _312
REMARK  137  A    between atoms: _314  and  _316
REMARK  138  A    between atoms: _316  and  _317
REMARK  139  A    between atoms: _316  and  _319
REMARK  140  A    between atoms: _319  and  _320
REMARK  141  A    between atoms: _323  and  _325
REMARK  142  A    between atoms: _325  and  _326
REMARK  143  A    between atoms: _325  and  _328
REMARK  144  A    between atoms: _328  and  _329
REMARK  145  A    between atoms: _331  and  _333
REMARK  146  A    between atoms: _333  and  _334
REMARK  147  A    between atoms: _333  and  _336
REMARK  148  A    between atoms: _336  and  _337
REMARK  149  A    between atoms: _340  and  _342
REMARK  150  A    between atoms: _342  and  _343
REMARK  151  A    between atoms: _342  and  _345
REMARK  152  A    between atoms: _345  and  _346
REMARK  153  A    between atoms: _351  and  _353
REMARK  154  A    between atoms: _353  and  _354
REMARK  155  A    between atoms: _357  and  _359
REMARK  156  A    between atoms: _359  and  _360
REMARK  157  A    between atoms: _359  and  _362
REMARK  158  A    between atoms: _362  and  _363
REMARK  159  A    between atoms: _366  and  _368
REMARK  160  A    between atoms: _368  and  _369
REMARK  161  A    between atoms: _368  and  _371
REMARK  162  A    between atoms: _371  and  _372
REMARK  163  A    between atoms: _372  and  _373
REMARK  164  A    between atoms: _373  and  _374
REMARK  165  A    between atoms: _374  and  _375
REMARK  166  A    between atoms: _379  and  _381
REMARK  167  A    between atoms: _381  and  _382
REMARK  168  A    between atoms: _385  and  _387
REMARK  169  A    between atoms: _387  and  _388
REMARK  170  A    between atoms: _390  and  _392
REMARK  171  A    between atoms: _392  and  _393
REMARK  172  A    between atoms: _392  and  _395
REMARK  173  A    between atoms: _395  and  _396
REMARK  174  A    between atoms: _398  and  _400
REMARK  175  A    between atoms: _400  and  _401
REMARK  176  A    between atoms: _400  and  _403
REMARK  177  A    between atoms: _403  and  _404
REMARK  178  A    between atoms: _410  and  _412
REMARK  179  A    between atoms: _412  and  _413
REMARK  180  A    between atoms: _412  and  _415
REMARK  181  A    between atoms: _415  and  _416
REMARK  182  A    between atoms: _419  and  _421
REMARK  183  A    between atoms: _421  and  _422
REMARK  184  A    between atoms: _421  and  _424
REMARK  185  A    between atoms: _424  and  _425
REMARK  186  A    between atoms: _428  and  _430
REMARK  187  A    between atoms: _430  and  _431
REMARK  188  A    between atoms: _430  and  _433
REMARK  189  A    between atoms: _433  and  _434
REMARK  190  A    between atoms: _437  and  _439
REMARK  191  A    between atoms: _439  and  _440
REMARK  192  A    between atoms: _439  and  _442
REMARK  193  A    between atoms: _442  and  _443
REMARK  194  A    between atoms: _446  and  _448
REMARK  195  A    between atoms: _448  and  _449
REMARK  196  A    between atoms: _448  and  _451
REMARK  197  A    between atoms: _451  and  _452
REMARK  198  A    between atoms: _454  and  _456
REMARK  199  A    between atoms: _456  and  _457
REMARK  200  A    between atoms: _460  and  _462
REMARK  201  A    between atoms: _462  and  _463
REMARK  202  A    between atoms: _462  and  _465
REMARK  203  A    between atoms: _465  and  _466
REMARK  204  A    between atoms: _472  and  _474
REMARK  205  A    between atoms: _474  and  _475
REMARK  206  A    between atoms: _474  and  _477
REMARK  207  A    between atoms: _477  and  _478
REMARK  208  A    between atoms: _481  and  _483
REMARK  209  A    between atoms: _483  and  _484
REMARK  210  A    between atoms: _483  and  _486
REMARK  211  A    between atoms: _486  and  _487
REMARK  212  A    between atoms: _492  and  _494
REMARK  213  A    between atoms: _494  and  _495
REMARK  214  A    between atoms: _494  and  _497
REMARK  215  A    between atoms: _497  and  _498
REMARK  216  A    between atoms: _504  and  _506
REMARK  217  A    between atoms: _506  and  _507
REMARK  218  A    between atoms: _506  and  _509
REMARK  219  A    between atoms: _509  and  _510
REMARK  220  A    between atoms: _514  and  _515
REMARK                            x       y       z     vdW  Elec       q    Type
REMARK                         _______ _______ _______ _____ _____    ______ ____
ROOT
ATOM      1  O   HOH     1       4.360  48.003 -37.973  0.00  0.00    +0.000 OA
ENDROOT
TORSDOF 0
REMARK  Name = ../refined-set-2016/4ynb/4ynb_pocket.pdb
REMARK  220 active torsions:
REMARK  status: ('A' for Active; 'I' for Inactive)
REMARK    1  A    between atoms: _1  and  _3
REMARK    2  A    between atoms: _3  and  _4
REMARK    3  A    between atoms: _6  and  _8
REMARK    4  A    between atoms: _8  and  _9
REMARK    5  A    between atoms: _12  and  _14
REMARK    6  A    between atoms: _14  and  _15
REMARK    7  A    between atoms: _14  and  _17
REMARK    8  A    between atoms: _17  and  _18
REMARK    9  A    between atoms: _18  and  _19
REMARK   10  A    between atoms: _21  and  _23
REMARK   11  A    between atoms: _23  and  _24
REMARK   12  A    between atoms: _23  and  _26
REMARK   13  A    between atoms: _26  and  _27
REMARK   14  A    between atoms: _27  and  _28
REMARK   15  A    between atoms: _31  and  _33
REMARK   16  A    between atoms: _33  and  _34
REMARK   17  A    between atoms: _33  and  _36
REMARK   18  A    between atoms: _36  and  _37
REMARK   19  A    between atoms: _37  and  _38
REMARK   20  A    between atoms: _41  and  _43
REMARK   21  A    between atoms: _43  and  _44
REMARK   22  A    between atoms: _43  and  _46
REMARK   23  A    between atoms: _46  and  _47
REMARK   24  A    between atoms: _49  and  _51
REMARK   25  A    between atoms: _51  and  _52
REMARK   26  A    between atoms: _51  and  _54
REMARK   27  A    between atoms: _54  and  _55
REMARK   28  A    between atoms: _55  and  _56
REMARK   29  A    between atoms: _56  and  _57
REMARK   30  A    between atoms: _57  and  _58
REMARK   31  A    between atoms: _62  and  _64
REMARK   32  A    between atoms: _64  and  _65
REMARK   33  A    between atoms: _64  and  _67
REMARK   34  A    between atoms: _67  and  _68
REMARK   35  A    between atoms: _71  and  _73
REMARK   36  A    between atoms: _73  and  _74
REMARK   37  A    between atoms: _76  and  _78
REMARK   38  A    between atoms: _78  and  _79
REMARK   39  A    between atoms: _78  and  _81
REMARK   40  A    between atoms: _81  and  _82
REMARK   41  A    between atoms: _88  and  _90
REMARK   42  A    between atoms: _90  and  _91
REMARK   43  A    between atoms: _93  and  _95
REMARK   44  A    between atoms: _95  and  _96
REMARK   45  A    between atoms: _95  and  _98
REMARK   46  A    between atoms: _101  and  _103
REMARK   47  A    between atoms: _103  and  _104
REMARK   48  A    between atoms: _107  and  _109
REMARK   49  A    between atoms: _109  and  _110
REMARK   50  A    between atoms: _112  and  _114
REMARK   51  A    between atoms: _114  and  _115
REMARK   52  A    between atoms: _114  and  _117
REMARK   53  A    between atoms: _117  and  _118
REMARK   54  A    between atoms: _120  and  _122
REMARK   55  A    between atoms: _122  and  _123
REMARK   56  A    between atoms: _122  and  _125
REMARK   57  A    between atoms: _125  and  _126
REMARK   58  A    between atoms: _129  and  _131
REMARK   59  A    between atoms: _131  and  _132
REMARK   60  A    between atoms: _131  and  _134
REMARK   61  A    between atoms: _134  and  _135
REMARK   62  A    between atoms: _140  and  _142
REMARK   63  A    between atoms: _142  and  _143
REMARK   64  A    between atoms: _146  and  _148
REMARK   65  A    between atoms: _148  and  _149
REMARK   66  A    between atoms: _148  and  _151
REMARK   67  A    between atoms: _151  and  _152
REMARK   68  A    between atoms: _154  and  _156
REMARK   69  A    between atoms: _156  and  _157
REMARK   70  A    between atoms: _159  and  _161
REMARK   71  A    between atoms: _161  and  _162
REMARK   72  A    between atoms: _161  and  _164
REMARK   73  A    between atoms: _164  and  _165
REMARK   74  A    between atoms: _168  and  _170
REMARK   75  A    between atoms: _170  and  _171
REMARK   76  A    between atoms: _170  and  _173
REMARK   77  A    between atoms: _173  and  _174
REMARK   78  A    between atoms: _174  and  _175
REMARK   79  A    between atoms: _180  and  _182
REMARK   80  A    between atoms: _182  and  _183
REMARK   81  A    between atoms: _182  and  _185
REMARK   82  A    between atoms: _185  and  _186
REMARK   83  A    between atoms: _192  and  _194
REMARK   84  A    between atoms: _194  and  _195
REMARK   85  A    between atoms: _194  and  _197
REMARK   86  A    between atoms: _200  and  _202
REMARK   87  A    between atoms: _202  and  _203
REMARK   88  A    between atoms: _202  and  _205
REMARK   89  A    between atoms: _205  and  _206
REMARK   90  A    between atoms: _211  and  _213
REMARK   91  A    between atoms: _213  and  _214
REMARK   92  A    between atoms: _213  and  _216
REMARK   93  A    between atoms: _216  and  _217
REMARK   94  A    between atoms: _219  and  _221
REMARK   95  A    between atoms: _221  and  _222
REMARK   96  A    between atoms: _221  and  _224
REMARK   97  A    between atoms: _224  and  _225
REMARK   98  A    between atoms: _225  and  _226
REMARK   99  A    between atoms: _226  and  _227
REMARK  100  A    between atoms: _227  and  _228
REMARK  101  A    between atoms: _232  and  _234
REMARK  102  A    between atoms: _234  and  _235
REMARK  103  A    between atoms: _234  and  _237
REMARK  104  A    between atoms: _237  and  _238
REMARK  105  A    between atoms: _241  and  _243
REMARK  106  A    between atoms: _243  and  _244
REMARK  107  A    between atoms: _247  and  _249
REMARK  108  A    between atoms: _249  and  _250
REMARK  109  A    between atoms: _249  and  _252
REMARK  110  A    between atoms: _255  and  _257
REMARK  111  A    between atoms: _257  and  _258
REMARK  112  A    between atoms: _257  and  _260
REMARK  113  A    between atoms: _260  and  _261
REMARK  114  A    between atoms: _261  and  _262
REMARK  115  A    between atoms: _265  and  _267
REMARK  116  A    between atoms: _267  and  _268
REMARK  117  A    between atoms: _267  and  _270
REMARK  118  A    between atoms: _270  and  _271
REMARK  119  A    between atoms: _271  and  _272
REMARK  120  A    between atoms: _274  and  _276
REMARK  121  A    between atoms: _276  and  _277
REMARK  122  A    between atoms: _276  and  _279
REMARK  123  A    between atoms: _279  and  _280
REMARK  124  A    between atoms: _280  and  _281
REMARK  125  A    between atoms: _284  and  _286
REMARK  126  A    between atoms: _286  and  _287
REMARK  127  A    between atoms: _289  and  _291
REMARK  128  A    between atoms: _291  and  _292
REMARK  129  A    between atoms: _291  and  _294
REMARK  130  A    between atoms: _294  and  _295
REMARK  131  A    between atoms: _295  and  _296
REMARK  132  A    between atoms: _296  and  _297
REMARK  133  A    between atoms: _306  and  _308
REMARK  134  A    between atoms: _308  and  _309
REMARK  135  A    between atoms: _308  and  _311
REMARK  136  A    between atoms: _311  and  _312
REMARK  137  A    between atoms: _314  and  _316
REMARK  138  A    between atoms: _316  and  _317
REMARK  139  A    between atoms: _316  and  _319
REMARK  140  A    between atoms: _319  and  _320
REMARK  141  A    between atoms: _323  and  _325
REMARK  142  A    between atoms: _325  and  _326
REMARK  143  A    between atoms: _325  and  _328
REMARK  144  A    between atoms: _328  and  _329
REMARK  145  A    between atoms: _331  and  _333
REMARK  146  A    between atoms: _333  and  _334
REMARK  147  A    between atoms: _333  and  _336
REMARK  148  A    between atoms: _336  and  _337
REMARK  149  A    between atoms: _340  and  _342
REMARK  150  A    between atoms: _342  and  _343
REMARK  151  A    between atoms: _342  and  _345
REMARK  152  A    between atoms: _345  and  _346
REMARK  153  A    between atoms: _351  and  _353
REMARK  154  A    between atoms: _353  and  _354
REMARK  155  A    between atoms: _357  and  _359
REMARK  156  A    between atoms: _359  and  _360
REMARK  157  A    between atoms: _359  and  _362
REMARK  158  A    between atoms: _362  and  _363
REMARK  159  A    between atoms: _366  and  _368
REMARK  160  A    between atoms: _368  and  _369
REMARK  161  A    between atoms: _368  and  _371
REMARK  162  A    between atoms: _371  and  _372
REMARK  163  A    between atoms: _372  and  _373
REMARK  164  A    between atoms: _373  and  _374
REMARK  165  A    between atoms: _374  and  _375
REMARK  166  A    between atoms: _379  and  _381
REMARK  167  A    between atoms: _381  and  _382
REMARK  168  A    between atoms: _385  and  _387
REMARK  169  A    between atoms: _387  and  _388
REMARK  170  A    between atoms: _390  and  _392
REMARK  171  A    between atoms: _392  and  _393
REMARK  172  A    between atoms: _392  and  _395
REMARK  173  A    between atoms: _395  and  _396
REMARK  174  A    between atoms: _398  and  _400
REMARK  175  A    between atoms: _400  and  _401
REMARK  176  A    between atoms: _400  and  _403
REMARK  177  A    between atoms: _403  and  _404
REMARK  178  A    between atoms: _410  and  _412
REMARK  179  A    between atoms: _412  and  _413
REMARK  180  A    between atoms: _412  and  _415
REMARK  181  A    between atoms: _415  and  _416
REMARK  182  A    between atoms: _419  and  _421
REMARK  183  A    between atoms: _421  and  _422
REMARK  184  A    between atoms: _421  and  _424
REMARK  185  A    between atoms: _424  and  _425
REMARK  186  A    between atoms: _428  and  _430
REMARK  187  A    between atoms: _430  and  _431
REMARK  188  A    between atoms: _430  and  _433
REMARK  189  A    between atoms: _433  and  _434
REMARK  190  A    between atoms: _437  and  _439
REMARK  191  A    between atoms: _439  and  _440
REMARK  192  A    between atoms: _439  and  _442
REMARK  193  A    between atoms: _442  and  _443
REMARK  194  A    between atoms: _446  and  _448
REMARK  195  A    between atoms: _448  and  _449
REMARK  196  A    between atoms: _448  and  _451
REMARK  197  A    between atoms: _451  and  _452
REMARK  198  A    between atoms: _454  and  _456
REMARK  199  A    between atoms: _456  and  _457
REMARK  200  A    between atoms: _460  and  _462
REMARK  201  A    between atoms: _462  and  _463
REMARK  202  A    between atoms: _462  and  _465
REMARK  203  A    between atoms: _465  and  _466
REMARK  204  A    between atoms: _472  and  _474
REMARK  205  A    between atoms: _474  and  _475
REMARK  206  A    between atoms: _474  and  _477
REMARK  207  A    between atoms: _477  and  _478
REMARK  208  A    between atoms: _481  and  _483
REMARK  209  A    between atoms: _483  and  _484
REMARK  210  A    between atoms: _483  and  _486
REMARK  211  A    between atoms: _486  and  _487
REMARK  212  A    between atoms: _492  and  _494
REMARK  213  A    between atoms: _494  and  _495
REMARK  214  A    between atoms: _494  and  _497
REMARK  215  A    between atoms: _497  and  _498
REMARK  216  A    between atoms: _504  and  _506
REMARK  217  A    between atoms: _506  and  _507
REMARK  218  A    between atoms: _506  and  _509
REMARK  219  A    between atoms: _509  and  _510
REMARK  220  A    between atoms: _514  and  _515
REMARK                            x       y       z     vdW  Elec       q    Type
REMARK                         _______ _______ _______ _____ _____    ______ ____
ROOT
ATOM      1  O   HOH     1      13.861  57.905 -37.941  0.00  0.00    +0.000 OA
ENDROOT
TORSDOF 0
REMARK  Name = ../refined-set-2016/4ynb/4ynb_pocket.pdb
REMARK  220 active torsions:
REMARK  status: ('A' for Active; 'I' for Inactive)
REMARK    1  A    between atoms: _1  and  _3
REMARK    2  A    between atoms: _3  and  _4
REMARK    3  A    between atoms: _6  and  _8
REMARK    4  A    between atoms: _8  and  _9
REMARK    5  A    between atoms: _12  and  _14
REMARK    6  A    between atoms: _14  and  _15
REMARK    7  A    between atoms: _14  and  _17
REMARK    8  A    between atoms: _17  and  _18
REMARK    9  A    between atoms: _18  and  _19
REMARK   10  A    between atoms: _21  and  _23
REMARK   11  A    between atoms: _23  and  _24
REMARK   12  A    between atoms: _23  and  _26
REMARK   13  A    between atoms: _26  and  _27
REMARK   14  A    between atoms: _27  and  _28
REMARK   15  A    between atoms: _31  and  _33
REMARK   16  A    between atoms: _33  and  _34
REMARK   17  A    between atoms: _33  and  _36
REMARK   18  A    between atoms: _36  and  _37
REMARK   19  A    between atoms: _37  and  _38
REMARK   20  A    between atoms: _41  and  _43
REMARK   21  A    between atoms: _43  and  _44
REMARK   22  A    between atoms: _43  and  _46
REMARK   23  A    between atoms: _46  and  _47
REMARK   24  A    between atoms: _49  and  _51
REMARK   25  A    between atoms: _51  and  _52
REMARK   26  A    between atoms: _51  and  _54
REMARK   27  A    between atoms: _54  and  _55
REMARK   28  A    between atoms: _55  and  _56
REMARK   29  A    between atoms: _56  and  _57
REMARK   30  A    between atoms: _57  and  _58
REMARK   31  A    between atoms: _62  and  _64
REMARK   32  A    between atoms: _64  and  _65
REMARK   33  A    between atoms: _64  and  _67
REMARK   34  A    between atoms: _67  and  _68
REMARK   35  A    between atoms: _71  and  _73
REMARK   36  A    between atoms: _73  and  _74
REMARK   37  A    between atoms: _76  and  _78
REMARK   38  A    between atoms: _78  and  _79
REMARK   39  A    between atoms: _78  and  _81
REMARK   40  A    between atoms: _81  and  _82
REMARK   41  A    between atoms: _88  and  _90
REMARK   42  A    between atoms: _90  and  _91
REMARK   43  A    between atoms: _93  and  _95
REMARK   44  A    between atoms: _95  and  _96
REMARK   45  A    between atoms: _95  and  _98
REMARK   46  A    between atoms: _101  and  _103
REMARK   47  A    between atoms: _103  and  _104
REMARK   48  A    between atoms: _107  and  _109
REMARK   49  A    between atoms: _109  and  _110
REMARK   50  A    between atoms: _112  and  _114
REMARK   51  A    between atoms: _114  and  _115
REMARK   52  A    between atoms: _114  and  _117
REMARK   53  A    between atoms: _117  and  _118
REMARK   54  A    between atoms: _120  and  _122
REMARK   55  A    between atoms: _122  and  _123
REMARK   56  A    between atoms: _122  and  _125
REMARK   57  A    between atoms: _125  and  _126
REMARK   58  A    between atoms: _129  and  _131
REMARK   59  A    between atoms: _131  and  _132
REMARK   60  A    between atoms: _131  and  _134
REMARK   61  A    between atoms: _134  and  _135
REMARK   62  A    between atoms: _140  and  _142
REMARK   63  A    between atoms: _142  and  _143
REMARK   64  A    between atoms: _146  and  _148
REMARK   65  A    between atoms: _148  and  _149
REMARK   66  A    between atoms: _148  and  _151
REMARK   67  A    between atoms: _151  and  _152
REMARK   68  A    between atoms: _154  and  _156
REMARK   69  A    between atoms: _156  and  _157
REMARK   70  A    between atoms: _159  and  _161
REMARK   71  A    between atoms: _161  and  _162
REMARK   72  A    between atoms: _161  and  _164
REMARK   73  A    between atoms: _164  and  _165
REMARK   74  A    between atoms: _168  and  _170
REMARK   75  A    between atoms: _170  and  _171
REMARK   76  A    between atoms: _170  and  _173
REMARK   77  A    between atoms: _173  and  _174
REMARK   78  A    between atoms: _174  and  _175
REMARK   79  A    between atoms: _180  and  _182
REMARK   80  A    between atoms: _182  and  _183
REMARK   81  A    between atoms: _182  and  _185
REMARK   82  A    between atoms: _185  and  _186
REMARK   83  A    between atoms: _192  and  _194
REMARK   84  A    between atoms: _194  and  _195
REMARK   85  A    between atoms: _194  and  _197
REMARK   86  A    between atoms: _200  and  _202
REMARK   87  A    between atoms: _202  and  _203
REMARK   88  A    between atoms: _202  and  _205
REMARK   89  A    between atoms: _205  and  _206
REMARK   90  A    between atoms: _211  and  _213
REMARK   91  A    between atoms: _213  and  _214
REMARK   92  A    between atoms: _213  and  _216
REMARK   93  A    between atoms: _216  and  _217
REMARK   94  A    between atoms: _219  and  _221
REMARK   95  A    between atoms: _221  and  _222
REMARK   96  A    between atoms: _221  and  _224
REMARK   97  A    between atoms: _224  and  _225
REMARK   98  A    between atoms: _225  and  _226
REMARK   99  A    between atoms: _226  and  _227
REMARK  100  A    between atoms: _227  and  _228
REMARK  101  A    between atoms: _232  and  _234
REMARK  102  A    between atoms: _234  and  _235
REMARK  103  A    between atoms: _234  and  _237
REMARK  104  A    between atoms: _237  and  _238
REMARK  105  A    between atoms: _241  and  _243
REMARK  106  A    between atoms: _243  and  _244
REMARK  107  A    between atoms: _247  and  _249
REMARK  108  A    between atoms: _249  and  _250
REMARK  109  A    between atoms: _249  and  _252
REMARK  110  A    between atoms: _255  and  _257
REMARK  111  A    between atoms: _257  and  _258
REMARK  112  A    between atoms: _257  and  _260
REMARK  113  A    between atoms: _260  and  _261
REMARK  114  A    between atoms: _261  and  _262
REMARK  115  A    between atoms: _265  and  _267
REMARK  116  A    between atoms: _267  and  _268
REMARK  117  A    between atoms: _267  and  _270
REMARK  118  A    between atoms: _270  and  _271
REMARK  119  A    between atoms: _271  and  _272
REMARK  120  A    between atoms: _274  and  _276
REMARK  121  A    between atoms: _276  and  _277
REMARK  122  A    between atoms: _276  and  _279
REMARK  123  A    between atoms: _279  and  _280
REMARK  124  A    between atoms: _280  and  _281
REMARK  125  A    between atoms: _284  and  _286
REMARK  126  A    between atoms: _286  and  _287
REMARK  127  A    between atoms: _289  and  _291
REMARK  128  A    between atoms: _291  and  _292
REMARK  129  A    between atoms: _291  and  _294
REMARK  130  A    between atoms: _294  and  _295
REMARK  131  A    between atoms: _295  and  _296
REMARK  132  A    between atoms: _296  and  _297
REMARK  133  A    between atoms: _306  and  _308
REMARK  134  A    between atoms: _308  and  _309
REMARK  135  A    between atoms: _308  and  _311
REMARK  136  A    between atoms: _311  and  _312
REMARK  137  A    between atoms: _314  and  _316
REMARK  138  A    between atoms: _316  and  _317
REMARK  139  A    between atoms: _316  and  _319
REMARK  140  A    between atoms: _319  and  _320
REMARK  141  A    between atoms: _323  and  _325
REMARK  142  A    between atoms: _325  and  _326
REMARK  143  A    between atoms: _325  and  _328
REMARK  144  A    between atoms: _328  and  _329
REMARK  145  A    between atoms: _331  and  _333
REMARK  146  A    between atoms: _333  and  _334
REMARK  147  A    between atoms: _333  and  _336
REMARK  148  A    between atoms: _336  and  _337
REMARK  149  A    between atoms: _340  and  _342
REMARK  150  A    between atoms: _342  and  _343
REMARK  151  A    between atoms: _342  and  _345
REMARK  152  A    between atoms: _345  and  _346
REMARK  153  A    between atoms: _351  and  _353
REMARK  154  A    between atoms: _353  and  _354
REMARK  155  A    between atoms: _357  and  _359
REMARK  156  A    between atoms: _359  and  _360
REMARK  157  A    between atoms: _359  and  _362
REMARK  158  A    between atoms: _362  and  _363
REMARK  159  A    between atoms: _366  and  _368
REMARK  160  A    between atoms: _368  and  _369
REMARK  161  A    between atoms: _368  and  _371
REMARK  162  A    between atoms: _371  and  _372
REMARK  163  A    between atoms: _372  and  _373
REMARK  164  A    between atoms: _373  and  _374
REMARK  165  A    between atoms: _374  and  _375
REMARK  166  A    between atoms: _379  and  _381
REMARK  167  A    between atoms: _381  and  _382
REMARK  168  A    between atoms: _385  and  _387
REMARK  169  A    between atoms: _387  and  _388
REMARK  170  A    between atoms: _390  and  _392
REMARK  171  A    between atoms: _392  and  _393
REMARK  172  A    between atoms: _392  and  _395
REMARK  173  A    between atoms: _395  and  _396
REMARK  174  A    between atoms: _398  and  _400
REMARK  175  A    between atoms: _400  and  _401
REMARK  176  A    between atoms: _400  and  _403
REMARK  177  A    between atoms: _403  and  _404
REMARK  178  A    between atoms: _410  and  _412
REMARK  179  A    between atoms: _412  and  _413
REMARK  180  A    between atoms: _412  and  _415
REMARK  181  A    between atoms: _415  and  _416
REMARK  182  A    between atoms: _419  and  _421
REMARK  183  A    between atoms: _421  and  _422
REMARK  184  A    between atoms: _421  and  _424
REMARK  185  A    between atoms: _424  and  _425
REMARK  186  A    between atoms: _428  and  _430
REMARK  187  A    between atoms: _430  and  _431
REMARK  188  A    between atoms: _430  and  _433
REMARK  189  A    between atoms: _433  and  _434
REMARK  190  A    between atoms: _437  and  _439
REMARK  191  A    between atoms: _439  and  _440
REMARK  192  A    between atoms: _439  and  _442
REMARK  193  A    between atoms: _442  and  _443
REMARK  194  A    between atoms: _446  and  _448
REMARK  195  A    between atoms: _448  and  _449
REMARK  196  A    between atoms: _448  and  _451
REMARK  197  A    between atoms: _451  and  _452
REMARK  198  A    between atoms: _454  and  _456
REMARK  199  A    between atoms: _456  and  _457
REMARK  200  A    between atoms: _460  and  _462
REMARK  201  A    between atoms: _462  and  _463
REMARK  202  A    between atoms: _462  and  _465
REMARK  203  A    between atoms: _465  and  _466
REMARK  204  A    between atoms: _472  and  _474
REMARK  205  A    between atoms: _474  and  _475
REMARK  206  A    between atoms: _474  and  _477
REMARK  207  A    between atoms: _477  and  _478
REMARK  208  A    between atoms: _481  and  _483
REMARK  209  A    between atoms: _483  and  _484
REMARK  210  A    between atoms: _483  and  _486
REMARK  211  A    between atoms: _486  and  _487
REMARK  212  A    between atoms: _492  and  _494
REMARK  213  A    between atoms: _494  and  _495
REMARK  214  A    between atoms: _494  and  _497
REMARK  215  A    between atoms: _497  and  _498
REMARK  216  A    between atoms: _504  and  _506
REMARK  217  A    between atoms: _506  and  _507
REMARK  218  A    between atoms: _506  and  _509
REMARK  219  A    between atoms: _509  and  _510
REMARK  220  A    between atoms: _514  and  _515
REMARK                            x       y       z     vdW  Elec       q    Type
REMARK                         _______ _______ _______ _____ _____    ______ ____
ROOT
ATOM      1  O   HOH     1       6.743  52.764 -44.454  0.00  0.00    +0.000 OA
ENDROOT
TORSDOF 0
REMARK  Name = ../refined-set-2016/4ynb/4ynb_pocket.pdb
REMARK  220 active torsions:
REMARK  status: ('A' for Active; 'I' for Inactive)
REMARK    1  A    between atoms: _1  and  _3
REMARK    2  A    between atoms: _3  and  _4
REMARK    3  A    between atoms: _6  and  _8
REMARK    4  A    between atoms: _8  and  _9
REMARK    5  A    between atoms: _12  and  _14
REMARK    6  A    between atoms: _14  and  _15
REMARK    7  A    between atoms: _14  and  _17
REMARK    8  A    between atoms: _17  and  _18
REMARK    9  A    between atoms: _18  and  _19
REMARK   10  A    between atoms: _21  and  _23
REMARK   11  A    between atoms: _23  and  _24
REMARK   12  A    between atoms: _23  and  _26
REMARK   13  A    between atoms: _26  and  _27
REMARK   14  A    between atoms: _27  and  _28
REMARK   15  A    between atoms: _31  and  _33
REMARK   16  A    between atoms: _33  and  _34
REMARK   17  A    between atoms: _33  and  _36
REMARK   18  A    between atoms: _36  and  _37
REMARK   19  A    between atoms: _37  and  _38
REMARK   20  A    between atoms: _41  and  _43
REMARK   21  A    between atoms: _43  and  _44
REMARK   22  A    between atoms: _43  and  _46
REMARK   23  A    between atoms: _46  and  _47
REMARK   24  A    between atoms: _49  and  _51
REMARK   25  A    between atoms: _51  and  _52
REMARK   26  A    between atoms: _51  and  _54
REMARK   27  A    between atoms: _54  and  _55
REMARK   28  A    between atoms: _55  and  _56
REMARK   29  A    between atoms: _56  and  _57
REMARK   30  A    between atoms: _57  and  _58
REMARK   31  A    between atoms: _62  and  _64
REMARK   32  A    between atoms: _64  and  _65
REMARK   33  A    between atoms: _64  and  _67
REMARK   34  A    between atoms: _67  and  _68
REMARK   35  A    between atoms: _71  and  _73
REMARK   36  A    between atoms: _73  and  _74
REMARK   37  A    between atoms: _76  and  _78
REMARK   38  A    between atoms: _78  and  _79
REMARK   39  A    between atoms: _78  and  _81
REMARK   40  A    between atoms: _81  and  _82
REMARK   41  A    between atoms: _88  and  _90
REMARK   42  A    between atoms: _90  and  _91
REMARK   43  A    between atoms: _93  and  _95
REMARK   44  A    between atoms: _95  and  _96
REMARK   45  A    between atoms: _95  and  _98
REMARK   46  A    between atoms: _101  and  _103
REMARK   47  A    between atoms: _103  and  _104
REMARK   48  A    between atoms: _107  and  _109
REMARK   49  A    between atoms: _109  and  _110
REMARK   50  A    between atoms: _112  and  _114
REMARK   51  A    between atoms: _114  and  _115
REMARK   52  A    between atoms: _114  and  _117
REMARK   53  A    between atoms: _117  and  _118
REMARK   54  A    between atoms: _120  and  _122
REMARK   55  A    between atoms: _122  and  _123
REMARK   56  A    between atoms: _122  and  _125
REMARK   57  A    between atoms: _125  and  _126
REMARK   58  A    between atoms: _129  and  _131
REMARK   59  A    between atoms: _131  and  _132
REMARK   60  A    between atoms: _131  and  _134
REMARK   61  A    between atoms: _134  and  _135
REMARK   62  A    between atoms: _140  and  _142
REMARK   63  A    between atoms: _142  and  _143
REMARK   64  A    between atoms: _146  and  _148
REMARK   65  A    between atoms: _148  and  _149
REMARK   66  A    between atoms: _148  and  _151
REMARK   67  A    between atoms: _151  and  _152
REMARK   68  A    between atoms: _154  and  _156
REMARK   69  A    between atoms: _156  and  _157
REMARK   70  A    between atoms: _159  and  _161
REMARK   71  A    between atoms: _161  and  _162
REMARK   72  A    between atoms: _161  and  _164
REMARK   73  A    between atoms: _164  and  _165
REMARK   74  A    between atoms: _168  and  _170
REMARK   75  A    between atoms: _170  and  _171
REMARK   76  A    between atoms: _170  and  _173
REMARK   77  A    between atoms: _173  and  _174
REMARK   78  A    between atoms: _174  and  _175
REMARK   79  A    between atoms: _180  and  _182
REMARK   80  A    between atoms: _182  and  _183
REMARK   81  A    between atoms: _182  and  _185
REMARK   82  A    between atoms: _185  and  _186
REMARK   83  A    between atoms: _192  and  _194
REMARK   84  A    between atoms: _194  and  _195
REMARK   85  A    between atoms: _194  and  _197
REMARK   86  A    between atoms: _200  and  _202
REMARK   87  A    between atoms: _202  and  _203
REMARK   88  A    between atoms: _202  and  _205
REMARK   89  A    between atoms: _205  and  _206
REMARK   90  A    between atoms: _211  and  _213
REMARK   91  A    between atoms: _213  and  _214
REMARK   92  A    between atoms: _213  and  _216
REMARK   93  A    between atoms: _216  and  _217
REMARK   94  A    between atoms: _219  and  _221
REMARK   95  A    between atoms: _221  and  _222
REMARK   96  A    between atoms: _221  and  _224
REMARK   97  A    between atoms: _224  and  _225
REMARK   98  A    between atoms: _225  and  _226
REMARK   99  A    between atoms: _226  and  _227
REMARK  100  A    between atoms: _227  and  _228
REMARK  101  A    between atoms: _232  and  _234
REMARK  102  A    between atoms: _234  and  _235
REMARK  103  A    between atoms: _234  and  _237
REMARK  104  A    between atoms: _237  and  _238
REMARK  105  A    between atoms: _241  and  _243
REMARK  106  A    between atoms: _243  and  _244
REMARK  107  A    between atoms: _247  and  _249
REMARK  108  A    between atoms: _249  and  _250
REMARK  109  A    between atoms: _249  and  _252
REMARK  110  A    between atoms: _255  and  _257
REMARK  111  A    between atoms: _257  and  _258
REMARK  112  A    between atoms: _257  and  _260
REMARK  113  A    between atoms: _260  and  _261
REMARK  114  A    between atoms: _261  and  _262
REMARK  115  A    between atoms: _265  and  _267
REMARK  116  A    between atoms: _267  and  _268
REMARK  117  A    between atoms: _267  and  _270
REMARK  118  A    between atoms: _270  and  _271
REMARK  119  A    between atoms: _271  and  _272
REMARK  120  A    between atoms: _274  and  _276
REMARK  121  A    between atoms: _276  and  _277
REMARK  122  A    between atoms: _276  and  _279
REMARK  123  A    between atoms: _279  and  _280
REMARK  124  A    between atoms: _280  and  _281
REMARK  125  A    between atoms: _284  and  _286
REMARK  126  A    between atoms: _286  and  _287
REMARK  127  A    between atoms: _289  and  _291
REMARK  128  A    between atoms: _291  and  _292
REMARK  129  A    between atoms: _291  and  _294
REMARK  130  A    between atoms: _294  and  _295
REMARK  131  A    between atoms: _295  and  _296
REMARK  132  A    between atoms: _296  and  _297
REMARK  133  A    between atoms: _306  and  _308
REMARK  134  A    between atoms: _308  and  _309
REMARK  135  A    between atoms: _308  and  _311
REMARK  136  A    between atoms: _311  and  _312
REMARK  137  A    between atoms: _314  and  _316
REMARK  138  A    between atoms: _316  and  _317
REMARK  139  A    between atoms: _316  and  _319
REMARK  140  A    between atoms: _319  and  _320
REMARK  141  A    between atoms: _323  and  _325
REMARK  142  A    between atoms: _325  and  _326
REMARK  143  A    between atoms: _325  and  _328
REMARK  144  A    between atoms: _328  and  _329
REMARK  145  A    between atoms: _331  and  _333
REMARK  146  A    between atoms: _333  and  _334
REMARK  147  A    between atoms: _333  and  _336
REMARK  148  A    between atoms: _336  and  _337
REMARK  149  A    between atoms: _340  and  _342
REMARK  150  A    between atoms: _342  and  _343
REMARK  151  A    between atoms: _342  and  _345
REMARK  152  A    between atoms: _345  and  _346
REMARK  153  A    between atoms: _351  and  _353
REMARK  154  A    between atoms: _353  and  _354
REMARK  155  A    between atoms: _357  and  _359
REMARK  156  A    between atoms: _359  and  _360
REMARK  157  A    between atoms: _359  and  _362
REMARK  158  A    between atoms: _362  and  _363
REMARK  159  A    between atoms: _366  and  _368
REMARK  160  A    between atoms: _368  and  _369
REMARK  161  A    between atoms: _368  and  _371
REMARK  162  A    between atoms: _371  and  _372
REMARK  163  A    between atoms: _372  and  _373
REMARK  164  A    between atoms: _373  and  _374
REMARK  165  A    between atoms: _374  and  _375
REMARK  166  A    between atoms: _379  and  _381
REMARK  167  A    between atoms: _381  and  _382
REMARK  168  A    between atoms: _385  and  _387
REMARK  169  A    between atoms: _387  and  _388
REMARK  170  A    between atoms: _390  and  _392
REMARK  171  A    between atoms: _392  and  _393
REMARK  172  A    between atoms: _392  and  _395
REMARK  173  A    between atoms: _395  and  _396
REMARK  174  A    between atoms: _398  and  _400
REMARK  175  A    between atoms: _400  and  _401
REMARK  176  A    between atoms: _400  and  _403
REMARK  177  A    between atoms: _403  and  _404
REMARK  178  A    between atoms: _410  and  _412
REMARK  179  A    between atoms: _412  and  _413
REMARK  180  A    between atoms: _412  and  _415
REMARK  181  A    between atoms: _415  and  _416
REMARK  182  A    between atoms: _419  and  _421
REMARK  183  A    between atoms: _421  and  _422
REMARK  184  A    between atoms: _421  and  _424
REMARK  185  A    between atoms: _424  and  _425
REMARK  186  A    between atoms: _428  and  _430
REMARK  187  A    between atoms: _430  and  _431
REMARK  188  A    between atoms: _430  and  _433
REMARK  189  A    between atoms: _433  and  _434
REMARK  190  A    between atoms: _437  and  _439
REMARK  191  A    between atoms: _439  and  _440
REMARK  192  A    between atoms: _439  and  _442
REMARK  193  A    between atoms: _442  and  _443
REMARK  194  A    between atoms: _446  and  _448
REMARK  195  A    between atoms: _448  and  _449
REMARK  196  A    between atoms: _448  and  _451
REMARK  197  A    between atoms: _451  and  _452
REMARK  198  A    between atoms: _454  and  _456
REMARK  199  A    between atoms: _456  and  _457
REMARK  200  A    between atoms: _460  and  _462
REMARK  201  A    between atoms: _462  and  _463
REMARK  202  A    between atoms: _462  and  _465
REMARK  203  A    between atoms: _465  and  _466
REMARK  204  A    between atoms: _472  and  _474
REMARK  205  A    between atoms: _474  and  _475
REMARK  206  A    between atoms: _474  and  _477
REMARK  207  A    between atoms: _477  and  _478
REMARK  208  A    between atoms: _481  and  _483
REMARK  209  A    between atoms: _483  and  _484
REMARK  210  A    between atoms: _483  and  _486
REMARK  211  A    between atoms: _486  and  _487
REMARK  212  A    between atoms: _492  and  _494
REMARK  213  A    between atoms: _494  and  _495
REMARK  214  A    between atoms: _494  and  _497
REMARK  215  A    between atoms: _497  and  _498
REMARK  216  A    between atoms: _504  and  _506
REMARK  217  A    between atoms: _506  and  _507
REMARK  218  A    between atoms: _506  and  _509
REMARK  219  A    between atoms: _509  and  _510
REMARK  220  A    between atoms: _514  and  _515
REMARK                            x       y       z     vdW  Elec       q    Type
REMARK                         _______ _______ _______ _____ _____    ______ ____
ROOT
ATOM      1  O   HOH     1      22.505  44.374 -33.228  0.00  0.00    +0.000 OA
ENDROOT
TORSDOF 0
REMARK  Name = ../refined-set-2016/4ynb/4ynb_pocket.pdb
REMARK  220 active torsions:
REMARK  status: ('A' for Active; 'I' for Inactive)
REMARK    1  A    between atoms: _1  and  _3
REMARK    2  A    between atoms: _3  and  _4
REMARK    3  A    between atoms: _6  and  _8
REMARK    4  A    between atoms: _8  and  _9
REMARK    5  A    between atoms: _12  and  _14
REMARK    6  A    between atoms: _14  and  _15
REMARK    7  A    between atoms: _14  and  _17
REMARK    8  A    between atoms: _17  and  _18
REMARK    9  A    between atoms: _18  and  _19
REMARK   10  A    between atoms: _21  and  _23
REMARK   11  A    between atoms: _23  and  _24
REMARK   12  A    between atoms: _23  and  _26
REMARK   13  A    between atoms: _26  and  _27
REMARK   14  A    between atoms: _27  and  _28
REMARK   15  A    between atoms: _31  and  _33
REMARK   16  A    between atoms: _33  and  _34
REMARK   17  A    between atoms: _33  and  _36
REMARK   18  A    between atoms: _36  and  _37
REMARK   19  A    between atoms: _37  and  _38
REMARK   20  A    between atoms: _41  and  _43
REMARK   21  A    between atoms: _43  and  _44
REMARK   22  A    between atoms: _43  and  _46
REMARK   23  A    between atoms: _46  and  _47
REMARK   24  A    between atoms: _49  and  _51
REMARK   25  A    between atoms: _51  and  _52
REMARK   26  A    between atoms: _51  and  _54
REMARK   27  A    between atoms: _54  and  _55
REMARK   28  A    between atoms: _55  and  _56
REMARK   29  A    between atoms: _56  and  _57
REMARK   30  A    between atoms: _57  and  _58
REMARK   31  A    between atoms: _62  and  _64
REMARK   32  A    between atoms: _64  and  _65
REMARK   33  A    between atoms: _64  and  _67
REMARK   34  A    between atoms: _67  and  _68
REMARK   35  A    between atoms: _71  and  _73
REMARK   36  A    between atoms: _73  and  _74
REMARK   37  A    between atoms: _76  and  _78
REMARK   38  A    between atoms: _78  and  _79
REMARK   39  A    between atoms: _78  and  _81
REMARK   40  A    between atoms: _81  and  _82
REMARK   41  A    between atoms: _88  and  _90
REMARK   42  A    between atoms: _90  and  _91
REMARK   43  A    between atoms: _93  and  _95
REMARK   44  A    between atoms: _95  and  _96
REMARK   45  A    between atoms: _95  and  _98
REMARK   46  A    between atoms: _101  and  _103
REMARK   47  A    between atoms: _103  and  _104
REMARK   48  A    between atoms: _107  and  _109
REMARK   49  A    between atoms: _109  and  _110
REMARK   50  A    between atoms: _112  and  _114
REMARK   51  A    between atoms: _114  and  _115
REMARK   52  A    between atoms: _114  and  _117
REMARK   53  A    between atoms: _117  and  _118
REMARK   54  A    between atoms: _120  and  _122
REMARK   55  A    between atoms: _122  and  _123
REMARK   56  A    between atoms: _122  and  _125
REMARK   57  A    between atoms: _125  and  _126
REMARK   58  A    between atoms: _129  and  _131
REMARK   59  A    between atoms: _131  and  _132
REMARK   60  A    between atoms: _131  and  _134
REMARK   61  A    between atoms: _134  and  _135
REMARK   62  A    between atoms: _140  and  _142
REMARK   63  A    between atoms: _142  and  _143
REMARK   64  A    between atoms: _146  and  _148
REMARK   65  A    between atoms: _148  and  _149
REMARK   66  A    between atoms: _148  and  _151
REMARK   67  A    between atoms: _151  and  _152
REMARK   68  A    between atoms: _154  and  _156
REMARK   69  A    between atoms: _156  and  _157
REMARK   70  A    between atoms: _159  and  _161
REMARK   71  A    between atoms: _161  and  _162
REMARK   72  A    between atoms: _161  and  _164
REMARK   73  A    between atoms: _164  and  _165
REMARK   74  A    between atoms: _168  and  _170
REMARK   75  A    between atoms: _170  and  _171
REMARK   76  A    between atoms: _170  and  _173
REMARK   77  A    between atoms: _173  and  _174
REMARK   78  A    between atoms: _174  and  _175
REMARK   79  A    between atoms: _180  and  _182
REMARK   80  A    between atoms: _182  and  _183
REMARK   81  A    between atoms: _182  and  _185
REMARK   82  A    between atoms: _185  and  _186
REMARK   83  A    between atoms: _192  and  _194
REMARK   84  A    between atoms: _194  and  _195
REMARK   85  A    between atoms: _194  and  _197
REMARK   86  A    between atoms: _200  and  _202
REMARK   87  A    between atoms: _202  and  _203
REMARK   88  A    between atoms: _202  and  _205
REMARK   89  A    between atoms: _205  and  _206
REMARK   90  A    between atoms: _211  and  _213
REMARK   91  A    between atoms: _213  and  _214
REMARK   92  A    between atoms: _213  and  _216
REMARK   93  A    between atoms: _216  and  _217
REMARK   94  A    between atoms: _219  and  _221
REMARK   95  A    between atoms: _221  and  _222
REMARK   96  A    between atoms: _221  and  _224
REMARK   97  A    between atoms: _224  and  _225
REMARK   98  A    between atoms: _225  and  _226
REMARK   99  A    between atoms: _226  and  _227
REMARK  100  A    between atoms: _227  and  _228
REMARK  101  A    between atoms: _232  and  _234
REMARK  102  A    between atoms: _234  and  _235
REMARK  103  A    between atoms: _234  and  _237
REMARK  104  A    between atoms: _237  and  _238
REMARK  105  A    between atoms: _241  and  _243
REMARK  106  A    between atoms: _243  and  _244
REMARK  107  A    between atoms: _247  and  _249
REMARK  108  A    between atoms: _249  and  _250
REMARK  109  A    between atoms: _249  and  _252
REMARK  110  A    between atoms: _255  and  _257
REMARK  111  A    between atoms: _257  and  _258
REMARK  112  A    between atoms: _257  and  _260
REMARK  113  A    between atoms: _260  and  _261
REMARK  114  A    between atoms: _261  and  _262
REMARK  115  A    between atoms: _265  and  _267
REMARK  116  A    between atoms: _267  and  _268
REMARK  117  A    between atoms: _267  and  _270
REMARK  118  A    between atoms: _270  and  _271
REMARK  119  A    between atoms: _271  and  _272
REMARK  120  A    between atoms: _274  and  _276
REMARK  121  A    between atoms: _276  and  _277
REMARK  122  A    between atoms: _276  and  _279
REMARK  123  A    between atoms: _279  and  _280
REMARK  124  A    between atoms: _280  and  _281
REMARK  125  A    between atoms: _284  and  _286
REMARK  126  A    between atoms: _286  and  _287
REMARK  127  A    between atoms: _289  and  _291
REMARK  128  A    between atoms: _291  and  _292
REMARK  129  A    between atoms: _291  and  _294
REMARK  130  A    between atoms: _294  and  _295
REMARK  131  A    between atoms: _295  and  _296
REMARK  132  A    between atoms: _296  and  _297
REMARK  133  A    between atoms: _306  and  _308
REMARK  134  A    between atoms: _308  and  _309
REMARK  135  A    between atoms: _308  and  _311
REMARK  136  A    between atoms: _311  and  _312
REMARK  137  A    between atoms: _314  and  _316
REMARK  138  A    between atoms: _316  and  _317
REMARK  139  A    between atoms: _316  and  _319
REMARK  140  A    between atoms: _319  and  _320
REMARK  141  A    between atoms: _323  and  _325
REMARK  142  A    between atoms: _325  and  _326
REMARK  143  A    between atoms: _325  and  _328
REMARK  144  A    between atoms: _328  and  _329
REMARK  145  A    between atoms: _331  and  _333
REMARK  146  A    between atoms: _333  and  _334
REMARK  147  A    between atoms: _333  and  _336
REMARK  148  A    between atoms: _336  and  _337
REMARK  149  A    between atoms: _340  and  _342
REMARK  150  A    between atoms: _342  and  _343
REMARK  151  A    between atoms: _342  and  _345
REMARK  152  A    between atoms: _345  and  _346
REMARK  153  A    between atoms: _351  and  _353
REMARK  154  A    between atoms: _353  and  _354
REMARK  155  A    between atoms: _357  and  _359
REMARK  156  A    between atoms: _359  and  _360
REMARK  157  A    between atoms: _359  and  _362
REMARK  158  A    between atoms: _362  and  _363
REMARK  159  A    between atoms: _366  and  _368
REMARK  160  A    between atoms: _368  and  _369
REMARK  161  A    between atoms: _368  and  _371
REMARK  162  A    between atoms: _371  and  _372
REMARK  163  A    between atoms: _372  and  _373
REMARK  164  A    between atoms: _373  and  _374
REMARK  165  A    between atoms: _374  and  _375
REMARK  166  A    between atoms: _379  and  _381
REMARK  167  A    between atoms: _381  and  _382
REMARK  168  A    between atoms: _385  and  _387
REMARK  169  A    between atoms: _387  and  _388
REMARK  170  A    between atoms: _390  and  _392
REMARK  171  A    between atoms: _392  and  _393
REMARK  172  A    between atoms: _392  and  _395
REMARK  173  A    between atoms: _395  and  _396
REMARK  174  A    between atoms: _398  and  _400
REMARK  175  A    between atoms: _400  and  _401
REMARK  176  A    between atoms: _400  and  _403
REMARK  177  A    between atoms: _403  and  _404
REMARK  178  A    between atoms: _410  and  _412
REMARK  179  A    between atoms: _412  and  _413
REMARK  180  A    between atoms: _412  and  _415
REMARK  181  A    between atoms: _415  and  _416
REMARK  182  A    between atoms: _419  and  _421
REMARK  183  A    between atoms: _421  and  _422
REMARK  184  A    between atoms: _421  and  _424
REMARK  185  A    between atoms: _424  and  _425
REMARK  186  A    between atoms: _428  and  _430
REMARK  187  A    between atoms: _430  and  _431
REMARK  188  A    between atoms: _430  and  _433
REMARK  189  A    between atoms: _433  and  _434
REMARK  190  A    between atoms: _437  and  _439
REMARK  191  A    between atoms: _439  and  _440
REMARK  192  A    between atoms: _439  and  _442
REMARK  193  A    between atoms: _442  and  _443
REMARK  194  A    between atoms: _446  and  _448
REMARK  195  A    between atoms: _448  and  _449
REMARK  196  A    between atoms: _448  and  _451
REMARK  197  A    between atoms: _451  and  _452
REMARK  198  A    between atoms: _454  and  _456
REMARK  199  A    between atoms: _456  and  _457
REMARK  200  A    between atoms: _460  and  _462
REMARK  201  A    between atoms: _462  and  _463
REMARK  202  A    between atoms: _462  and  _465
REMARK  203  A    between atoms: _465  and  _466
REMARK  204  A    between atoms: _472  and  _474
REMARK  205  A    between atoms: _474  and  _475
REMARK  206  A    between atoms: _474  and  _477
REMARK  207  A    between atoms: _477  and  _478
REMARK  208  A    between atoms: _481  and  _483
REMARK  209  A    between atoms: _483  and  _484
REMARK  210  A    between atoms: _483  and  _486
REMARK  211  A    between atoms: _486  and  _487
REMARK  212  A    between atoms: _492  and  _494
REMARK  213  A    between atoms: _494  and  _495
REMARK  214  A    between atoms: _494  and  _497
REMARK  215  A    between atoms: _497  and  _498
REMARK  216  A    between atoms: _504  and  _506
REMARK  217  A    between atoms: _506  and  _507
REMARK  218  A    between atoms: _506  and  _509
REMARK  219  A    between atoms: _509  and  _510
REMARK  220  A    between atoms: _514  and  _515
REMARK                            x       y       z     vdW  Elec       q    Type
REMARK                         _______ _______ _______ _____ _____    ______ ____
ROOT
ATOM      1  O   HOH     1      18.976  44.472 -36.596  0.00  0.00    +0.000 OA
ENDROOT
TORSDOF 0
REMARK  Name = ../refined-set-2016/4ynb/4ynb_pocket.pdb
REMARK  220 active torsions:
REMARK  status: ('A' for Active; 'I' for Inactive)
REMARK    1  A    between atoms: _1  and  _3
REMARK    2  A    between atoms: _3  and  _4
REMARK    3  A    between atoms: _6  and  _8
REMARK    4  A    between atoms: _8  and  _9
REMARK    5  A    between atoms: _12  and  _14
REMARK    6  A    between atoms: _14  and  _15
REMARK    7  A    between atoms: _14  and  _17
REMARK    8  A    between atoms: _17  and  _18
REMARK    9  A    between atoms: _18  and  _19
REMARK   10  A    between atoms: _21  and  _23
REMARK   11  A    between atoms: _23  and  _24
REMARK   12  A    between atoms: _23  and  _26
REMARK   13  A    between atoms: _26  and  _27
REMARK   14  A    between atoms: _27  and  _28
REMARK   15  A    between atoms: _31  and  _33
REMARK   16  A    between atoms: _33  and  _34
REMARK   17  A    between atoms: _33  and  _36
REMARK   18  A    between atoms: _36  and  _37
REMARK   19  A    between atoms: _37  and  _38
REMARK   20  A    between atoms: _41  and  _43
REMARK   21  A    between atoms: _43  and  _44
REMARK   22  A    between atoms: _43  and  _46
REMARK   23  A    between atoms: _46  and  _47
REMARK   24  A    between atoms: _49  and  _51
REMARK   25  A    between atoms: _51  and  _52
REMARK   26  A    between atoms: _51  and  _54
REMARK   27  A    between atoms: _54  and  _55
REMARK   28  A    between atoms: _55  and  _56
REMARK   29  A    between atoms: _56  and  _57
REMARK   30  A    between atoms: _57  and  _58
REMARK   31  A    between atoms: _62  and  _64
REMARK   32  A    between atoms: _64  and  _65
REMARK   33  A    between atoms: _64  and  _67
REMARK   34  A    between atoms: _67  and  _68
REMARK   35  A    between atoms: _71  and  _73
REMARK   36  A    between atoms: _73  and  _74
REMARK   37  A    between atoms: _76  and  _78
REMARK   38  A    between atoms: _78  and  _79
REMARK   39  A    between atoms: _78  and  _81
REMARK   40  A    between atoms: _81  and  _82
REMARK   41  A    between atoms: _88  and  _90
REMARK   42  A    between atoms: _90  and  _91
REMARK   43  A    between atoms: _93  and  _95
REMARK   44  A    between atoms: _95  and  _96
REMARK   45  A    between atoms: _95  and  _98
REMARK   46  A    between atoms: _101  and  _103
REMARK   47  A    between atoms: _103  and  _104
REMARK   48  A    between atoms: _107  and  _109
REMARK   49  A    between atoms: _109  and  _110
REMARK   50  A    between atoms: _112  and  _114
REMARK   51  A    between atoms: _114  and  _115
REMARK   52  A    between atoms: _114  and  _117
REMARK   53  A    between atoms: _117  and  _118
REMARK   54  A    between atoms: _120  and  _122
REMARK   55  A    between atoms: _122  and  _123
REMARK   56  A    between atoms: _122  and  _125
REMARK   57  A    between atoms: _125  and  _126
REMARK   58  A    between atoms: _129  and  _131
REMARK   59  A    between atoms: _131  and  _132
REMARK   60  A    between atoms: _131  and  _134
REMARK   61  A    between atoms: _134  and  _135
REMARK   62  A    between atoms: _140  and  _142
REMARK   63  A    between atoms: _142  and  _143
REMARK   64  A    between atoms: _146  and  _148
REMARK   65  A    between atoms: _148  and  _149
REMARK   66  A    between atoms: _148  and  _151
REMARK   67  A    between atoms: _151  and  _152
REMARK   68  A    between atoms: _154  and  _156
REMARK   69  A    between atoms: _156  and  _157
REMARK   70  A    between atoms: _159  and  _161
REMARK   71  A    between atoms: _161  and  _162
REMARK   72  A    between atoms: _161  and  _164
REMARK   73  A    between atoms: _164  and  _165
REMARK   74  A    between atoms: _168  and  _170
REMARK   75  A    between atoms: _170  and  _171
REMARK   76  A    between atoms: _170  and  _173
REMARK   77  A    between atoms: _173  and  _174
REMARK   78  A    between atoms: _174  and  _175
REMARK   79  A    between atoms: _180  and  _182
REMARK   80  A    between atoms: _182  and  _183
REMARK   81  A    between atoms: _182  and  _185
REMARK   82  A    between atoms: _185  and  _186
REMARK   83  A    between atoms: _192  and  _194
REMARK   84  A    between atoms: _194  and  _195
REMARK   85  A    between atoms: _194  and  _197
REMARK   86  A    between atoms: _200  and  _202
REMARK   87  A    between atoms: _202  and  _203
REMARK   88  A    between atoms: _202  and  _205
REMARK   89  A    between atoms: _205  and  _206
REMARK   90  A    between atoms: _211  and  _213
REMARK   91  A    between atoms: _213  and  _214
REMARK   92  A    between atoms: _213  and  _216
REMARK   93  A    between atoms: _216  and  _217
REMARK   94  A    between atoms: _219  and  _221
REMARK   95  A    between atoms: _221  and  _222
REMARK   96  A    between atoms: _221  and  _224
REMARK   97  A    between atoms: _224  and  _225
REMARK   98  A    between atoms: _225  and  _226
REMARK   99  A    between atoms: _226  and  _227
REMARK  100  A    between atoms: _227  and  _228
REMARK  101  A    between atoms: _232  and  _234
REMARK  102  A    between atoms: _234  and  _235
REMARK  103  A    between atoms: _234  and  _237
REMARK  104  A    between atoms: _237  and  _238
REMARK  105  A    between atoms: _241  and  _243
REMARK  106  A    between atoms: _243  and  _244
REMARK  107  A    between atoms: _247  and  _249
REMARK  108  A    between atoms: _249  and  _250
REMARK  109  A    between atoms: _249  and  _252
REMARK  110  A    between atoms: _255  and  _257
REMARK  111  A    between atoms: _257  and  _258
REMARK  112  A    between atoms: _257  and  _260
REMARK  113  A    between atoms: _260  and  _261
REMARK  114  A    between atoms: _261  and  _262
REMARK  115  A    between atoms: _265  and  _267
REMARK  116  A    between atoms: _267  and  _268
REMARK  117  A    between atoms: _267  and  _270
REMARK  118  A    between atoms: _270  and  _271
REMARK  119  A    between atoms: _271  and  _272
REMARK  120  A    between atoms: _274  and  _276
REMARK  121  A    between atoms: _276  and  _277
REMARK  122  A    between atoms: _276  and  _279
REMARK  123  A    between atoms: _279  and  _280
REMARK  124  A    between atoms: _280  and  _281
REMARK  125  A    between atoms: _284  and  _286
REMARK  126  A    between atoms: _286  and  _287
REMARK  127  A    between atoms: _289  and  _291
REMARK  128  A    between atoms: _291  and  _292
REMARK  129  A    between atoms: _291  and  _294
REMARK  130  A    between atoms: _294  and  _295
REMARK  131  A    between atoms: _295  and  _296
REMARK  132  A    between atoms: _296  and  _297
REMARK  133  A    between atoms: _306  and  _308
REMARK  134  A    between atoms: _308  and  _309
REMARK  135  A    between atoms: _308  and  _311
REMARK  136  A    between atoms: _311  and  _312
REMARK  137  A    between atoms: _314  and  _316
REMARK  138  A    between atoms: _316  and  _317
REMARK  139  A    between atoms: _316  and  _319
REMARK  140  A    between atoms: _319  and  _320
REMARK  141  A    between atoms: _323  and  _325
REMARK  142  A    between atoms: _325  and  _326
REMARK  143  A    between atoms: _325  and  _328
REMARK  144  A    between atoms: _328  and  _329
REMARK  145  A    between atoms: _331  and  _333
REMARK  146  A    between atoms: _333  and  _334
REMARK  147  A    between atoms: _333  and  _336
REMARK  148  A    between atoms: _336  and  _337
REMARK  149  A    between atoms: _340  and  _342
REMARK  150  A    between atoms: _342  and  _343
REMARK  151  A    between atoms: _342  and  _345
REMARK  152  A    between atoms: _345  and  _346
REMARK  153  A    between atoms: _351  and  _353
REMARK  154  A    between atoms: _353  and  _354
REMARK  155  A    between atoms: _357  and  _359
REMARK  156  A    between atoms: _359  and  _360
REMARK  157  A    between atoms: _359  and  _362
REMARK  158  A    between atoms: _362  and  _363
REMARK  159  A    between atoms: _366  and  _368
REMARK  160  A    between atoms: _368  and  _369
REMARK  161  A    between atoms: _368  and  _371
REMARK  162  A    between atoms: _371  and  _372
REMARK  163  A    between atoms: _372  and  _373
REMARK  164  A    between atoms: _373  and  _374
REMARK  165  A    between atoms: _374  and  _375
REMARK  166  A    between atoms: _379  and  _381
REMARK  167  A    between atoms: _381  and  _382
REMARK  168  A    between atoms: _385  and  _387
REMARK  169  A    between atoms: _387  and  _388
REMARK  170  A    between atoms: _390  and  _392
REMARK  171  A    between atoms: _392  and  _393
REMARK  172  A    between atoms: _392  and  _395
REMARK  173  A    between atoms: _395  and  _396
REMARK  174  A    between atoms: _398  and  _400
REMARK  175  A    between atoms: _400  and  _401
REMARK  176  A    between atoms: _400  and  _403
REMARK  177  A    between atoms: _403  and  _404
REMARK  178  A    between atoms: _410  and  _412
REMARK  179  A    between atoms: _412  and  _413
REMARK  180  A    between atoms: _412  and  _415
REMARK  181  A    between atoms: _415  and  _416
REMARK  182  A    between atoms: _419  and  _421
REMARK  183  A    between atoms: _421  and  _422
REMARK  184  A    between atoms: _421  and  _424
REMARK  185  A    between atoms: _424  and  _425
REMARK  186  A    between atoms: _428  and  _430
REMARK  187  A    between atoms: _430  and  _431
REMARK  188  A    between atoms: _430  and  _433
REMARK  189  A    between atoms: _433  and  _434
REMARK  190  A    between atoms: _437  and  _439
REMARK  191  A    between atoms: _439  and  _440
REMARK  192  A    between atoms: _439  and  _442
REMARK  193  A    between atoms: _442  and  _443
REMARK  194  A    between atoms: _446  and  _448
REMARK  195  A    between atoms: _448  and  _449
REMARK  196  A    between atoms: _448  and  _451
REMARK  197  A    between atoms: _451  and  _452
REMARK  198  A    between atoms: _454  and  _456
REMARK  199  A    between atoms: _456  and  _457
REMARK  200  A    between atoms: _460  and  _462
REMARK  201  A    between atoms: _462  and  _463
REMARK  202  A    between atoms: _462  and  _465
REMARK  203  A    between atoms: _465  and  _466
REMARK  204  A    between atoms: _472  and  _474
REMARK  205  A    between atoms: _474  and  _475
REMARK  206  A    between atoms: _474  and  _477
REMARK  207  A    between atoms: _477  and  _478
REMARK  208  A    between atoms: _481  and  _483
REMARK  209  A    between atoms: _483  and  _484
REMARK  210  A    between atoms: _483  and  _486
REMARK  211  A    between atoms: _486  and  _487
REMARK  212  A    between atoms: _492  and  _494
REMARK  213  A    between atoms: _494  and  _495
REMARK  214  A    between atoms: _494  and  _497
REMARK  215  A    between atoms: _497  and  _498
REMARK  216  A    between atoms: _504  and  _506
REMARK  217  A    between atoms: _506  and  _507
REMARK  218  A    between atoms: _506  and  _509
REMARK  219  A    between atoms: _509  and  _510
REMARK  220  A    between atoms: _514  and  _515
REMARK                            x       y       z     vdW  Elec       q    Type
REMARK                         _______ _______ _______ _____ _____    ______ ____
ROOT
ATOM      1  O   HOH     1      18.691  37.374 -36.425  0.00  0.00    +0.000 OA
ENDROOT
TORSDOF 0
REMARK  Name = ../refined-set-2016/4ynb/4ynb_pocket.pdb
REMARK  220 active torsions:
REMARK  status: ('A' for Active; 'I' for Inactive)
REMARK    1  A    between atoms: _1  and  _3
REMARK    2  A    between atoms: _3  and  _4
REMARK    3  A    between atoms: _6  and  _8
REMARK    4  A    between atoms: _8  and  _9
REMARK    5  A    between atoms: _12  and  _14
REMARK    6  A    between atoms: _14  and  _15
REMARK    7  A    between atoms: _14  and  _17
REMARK    8  A    between atoms: _17  and  _18
REMARK    9  A    between atoms: _18  and  _19
REMARK   10  A    between atoms: _21  and  _23
REMARK   11  A    between atoms: _23  and  _24
REMARK   12  A    between atoms: _23  and  _26
REMARK   13  A    between atoms: _26  and  _27
REMARK   14  A    between atoms: _27  and  _28
REMARK   15  A    between atoms: _31  and  _33
REMARK   16  A    between atoms: _33  and  _34
REMARK   17  A    between atoms: _33  and  _36
REMARK   18  A    between atoms: _36  and  _37
REMARK   19  A    between atoms: _37  and  _38
REMARK   20  A    between atoms: _41  and  _43
REMARK   21  A    between atoms: _43  and  _44
REMARK   22  A    between atoms: _43  and  _46
REMARK   23  A    between atoms: _46  and  _47
REMARK   24  A    between atoms: _49  and  _51
REMARK   25  A    between atoms: _51  and  _52
REMARK   26  A    between atoms: _51  and  _54
REMARK   27  A    between atoms: _54  and  _55
REMARK   28  A    between atoms: _55  and  _56
REMARK   29  A    between atoms: _56  and  _57
REMARK   30  A    between atoms: _57  and  _58
REMARK   31  A    between atoms: _62  and  _64
REMARK   32  A    between atoms: _64  and  _65
REMARK   33  A    between atoms: _64  and  _67
REMARK   34  A    between atoms: _67  and  _68
REMARK   35  A    between atoms: _71  and  _73
REMARK   36  A    between atoms: _73  and  _74
REMARK   37  A    between atoms: _76  and  _78
REMARK   38  A    between atoms: _78  and  _79
REMARK   39  A    between atoms: _78  and  _81
REMARK   40  A    between atoms: _81  and  _82
REMARK   41  A    between atoms: _88  and  _90
REMARK   42  A    between atoms: _90  and  _91
REMARK   43  A    between atoms: _93  and  _95
REMARK   44  A    between atoms: _95  and  _96
REMARK   45  A    between atoms: _95  and  _98
REMARK   46  A    between atoms: _101  and  _103
REMARK   47  A    between atoms: _103  and  _104
REMARK   48  A    between atoms: _107  and  _109
REMARK   49  A    between atoms: _109  and  _110
REMARK   50  A    between atoms: _112  and  _114
REMARK   51  A    between atoms: _114  and  _115
REMARK   52  A    between atoms: _114  and  _117
REMARK   53  A    between atoms: _117  and  _118
REMARK   54  A    between atoms: _120  and  _122
REMARK   55  A    between atoms: _122  and  _123
REMARK   56  A    between atoms: _122  and  _125
REMARK   57  A    between atoms: _125  and  _126
REMARK   58  A    between atoms: _129  and  _131
REMARK   59  A    between atoms: _131  and  _132
REMARK   60  A    between atoms: _131  and  _134
REMARK   61  A    between atoms: _134  and  _135
REMARK   62  A    between atoms: _140  and  _142
REMARK   63  A    between atoms: _142  and  _143
REMARK   64  A    between atoms: _146  and  _148
REMARK   65  A    between atoms: _148  and  _149
REMARK   66  A    between atoms: _148  and  _151
REMARK   67  A    between atoms: _151  and  _152
REMARK   68  A    between atoms: _154  and  _156
REMARK   69  A    between atoms: _156  and  _157
REMARK   70  A    between atoms: _159  and  _161
REMARK   71  A    between atoms: _161  and  _162
REMARK   72  A    between atoms: _161  and  _164
REMARK   73  A    between atoms: _164  and  _165
REMARK   74  A    between atoms: _168  and  _170
REMARK   75  A    between atoms: _170  and  _171
REMARK   76  A    between atoms: _170  and  _173
REMARK   77  A    between atoms: _173  and  _174
REMARK   78  A    between atoms: _174  and  _175
REMARK   79  A    between atoms: _180  and  _182
REMARK   80  A    between atoms: _182  and  _183
REMARK   81  A    between atoms: _182  and  _185
REMARK   82  A    between atoms: _185  and  _186
REMARK   83  A    between atoms: _192  and  _194
REMARK   84  A    between atoms: _194  and  _195
REMARK   85  A    between atoms: _194  and  _197
REMARK   86  A    between atoms: _200  and  _202
REMARK   87  A    between atoms: _202  and  _203
REMARK   88  A    between atoms: _202  and  _205
REMARK   89  A    between atoms: _205  and  _206
REMARK   90  A    between atoms: _211  and  _213
REMARK   91  A    between atoms: _213  and  _214
REMARK   92  A    between atoms: _213  and  _216
REMARK   93  A    between atoms: _216  and  _217
REMARK   94  A    between atoms: _219  and  _221
REMARK   95  A    between atoms: _221  and  _222
REMARK   96  A    between atoms: _221  and  _224
REMARK   97  A    between atoms: _224  and  _225
REMARK   98  A    between atoms: _225  and  _226
REMARK   99  A    between atoms: _226  and  _227
REMARK  100  A    between atoms: _227  and  _228
REMARK  101  A    between atoms: _232  and  _234
REMARK  102  A    between atoms: _234  and  _235
REMARK  103  A    between atoms: _234  and  _237
REMARK  104  A    between atoms: _237  and  _238
REMARK  105  A    between atoms: _241  and  _243
REMARK  106  A    between atoms: _243  and  _244
REMARK  107  A    between atoms: _247  and  _249
REMARK  108  A    between atoms: _249  and  _250
REMARK  109  A    between atoms: _249  and  _252
REMARK  110  A    between atoms: _255  and  _257
REMARK  111  A    between atoms: _257  and  _258
REMARK  112  A    between atoms: _257  and  _260
REMARK  113  A    between atoms: _260  and  _261
REMARK  114  A    between atoms: _261  and  _262
REMARK  115  A    between atoms: _265  and  _267
REMARK  116  A    between atoms: _267  and  _268
REMARK  117  A    between atoms: _267  and  _270
REMARK  118  A    between atoms: _270  and  _271
REMARK  119  A    between atoms: _271  and  _272
REMARK  120  A    between atoms: _274  and  _276
REMARK  121  A    between atoms: _276  and  _277
REMARK  122  A    between atoms: _276  and  _279
REMARK  123  A    between atoms: _279  and  _280
REMARK  124  A    between atoms: _280  and  _281
REMARK  125  A    between atoms: _284  and  _286
REMARK  126  A    between atoms: _286  and  _287
REMARK  127  A    between atoms: _289  and  _291
REMARK  128  A    between atoms: _291  and  _292
REMARK  129  A    between atoms: _291  and  _294
REMARK  130  A    between atoms: _294  and  _295
REMARK  131  A    between atoms: _295  and  _296
REMARK  132  A    between atoms: _296  and  _297
REMARK  133  A    between atoms: _306  and  _308
REMARK  134  A    between atoms: _308  and  _309
REMARK  135  A    between atoms: _308  and  _311
REMARK  136  A    between atoms: _311  and  _312
REMARK  137  A    between atoms: _314  and  _316
REMARK  138  A    between atoms: _316  and  _317
REMARK  139  A    between atoms: _316  and  _319
REMARK  140  A    between atoms: _319  and  _320
REMARK  141  A    between atoms: _323  and  _325
REMARK  142  A    between atoms: _325  and  _326
REMARK  143  A    between atoms: _325  and  _328
REMARK  144  A    between atoms: _328  and  _329
REMARK  145  A    between atoms: _331  and  _333
REMARK  146  A    between atoms: _333  and  _334
REMARK  147  A    between atoms: _333  and  _336
REMARK  148  A    between atoms: _336  and  _337
REMARK  149  A    between atoms: _340  and  _342
REMARK  150  A    between atoms: _342  and  _343
REMARK  151  A    between atoms: _342  and  _345
REMARK  152  A    between atoms: _345  and  _346
REMARK  153  A    between atoms: _351  and  _353
REMARK  154  A    between atoms: _353  and  _354
REMARK  155  A    between atoms: _357  and  _359
REMARK  156  A    between atoms: _359  and  _360
REMARK  157  A    between atoms: _359  and  _362
REMARK  158  A    between atoms: _362  and  _363
REMARK  159  A    between atoms: _366  and  _368
REMARK  160  A    between atoms: _368  and  _369
REMARK  161  A    between atoms: _368  and  _371
REMARK  162  A    between atoms: _371  and  _372
REMARK  163  A    between atoms: _372  and  _373
REMARK  164  A    between atoms: _373  and  _374
REMARK  165  A    between atoms: _374  and  _375
REMARK  166  A    between atoms: _379  and  _381
REMARK  167  A    between atoms: _381  and  _382
REMARK  168  A    between atoms: _385  and  _387
REMARK  169  A    between atoms: _387  and  _388
REMARK  170  A    between atoms: _390  and  _392
REMARK  171  A    between atoms: _392  and  _393
REMARK  172  A    between atoms: _392  and  _395
REMARK  173  A    between atoms: _395  and  _396
REMARK  174  A    between atoms: _398  and  _400
REMARK  175  A    between atoms: _400  and  _401
REMARK  176  A    between atoms: _400  and  _403
REMARK  177  A    between atoms: _403  and  _404
REMARK  178  A    between atoms: _410  and  _412
REMARK  179  A    between atoms: _412  and  _413
REMARK  180  A    between atoms: _412  and  _415
REMARK  181  A    between atoms: _415  and  _416
REMARK  182  A    between atoms: _419  and  _421
REMARK  183  A    between atoms: _421  and  _422
REMARK  184  A    between atoms: _421  and  _424
REMARK  185  A    between atoms: _424  and  _425
REMARK  186  A    between atoms: _428  and  _430
REMARK  187  A    between atoms: _430  and  _431
REMARK  188  A    between atoms: _430  and  _433
REMARK  189  A    between atoms: _433  and  _434
REMARK  190  A    between atoms: _437  and  _439
REMARK  191  A    between atoms: _439  and  _440
REMARK  192  A    between atoms: _439  and  _442
REMARK  193  A    between atoms: _442  and  _443
REMARK  194  A    between atoms: _446  and  _448
REMARK  195  A    between atoms: _448  and  _449
REMARK  196  A    between atoms: _448  and  _451
REMARK  197  A    between atoms: _451  and  _452
REMARK  198  A    between atoms: _454  and  _456
REMARK  199  A    between atoms: _456  and  _457
REMARK  200  A    between atoms: _460  and  _462
REMARK  201  A    between atoms: _462  and  _463
REMARK  202  A    between atoms: _462  and  _465
REMARK  203  A    between atoms: _465  and  _466
REMARK  204  A    between atoms: _472  and  _474
REMARK  205  A    between atoms: _474  and  _475
REMARK  206  A    between atoms: _474  and  _477
REMARK  207  A    between atoms: _477  and  _478
REMARK  208  A    between atoms: _481  and  _483
REMARK  209  A    between atoms: _483  and  _484
REMARK  210  A    between atoms: _483  and  _486
REMARK  211  A    between atoms: _486  and  _487
REMARK  212  A    between atoms: _492  and  _494
REMARK  213  A    between atoms: _494  and  _495
REMARK  214  A    between atoms: _494  and  _497
REMARK  215  A    between atoms: _497  and  _498
REMARK  216  A    between atoms: _504  and  _506
REMARK  217  A    between atoms: _506  and  _507
REMARK  218  A    between atoms: _506  and  _509
REMARK  219  A    between atoms: _509  and  _510
REMARK  220  A    between atoms: _514  and  _515
REMARK                            x       y       z     vdW  Elec       q    Type
REMARK                         _______ _______ _______ _____ _____    ______ ____
ROOT
ATOM      1  O   HOH     1      13.332  37.595 -36.184  0.00  0.00    +0.000 OA
ENDROOT
TORSDOF 0
REMARK  Name = ../refined-set-2016/4ynb/4ynb_pocket.pdb
REMARK  220 active torsions:
REMARK  status: ('A' for Active; 'I' for Inactive)
REMARK    1  A    between atoms: _1  and  _3
REMARK    2  A    between atoms: _3  and  _4
REMARK    3  A    between atoms: _6  and  _8
REMARK    4  A    between atoms: _8  and  _9
REMARK    5  A    between atoms: _12  and  _14
REMARK    6  A    between atoms: _14  and  _15
REMARK    7  A    between atoms: _14  and  _17
REMARK    8  A    between atoms: _17  and  _18
REMARK    9  A    between atoms: _18  and  _19
REMARK   10  A    between atoms: _21  and  _23
REMARK   11  A    between atoms: _23  and  _24
REMARK   12  A    between atoms: _23  and  _26
REMARK   13  A    between atoms: _26  and  _27
REMARK   14  A    between atoms: _27  and  _28
REMARK   15  A    between atoms: _31  and  _33
REMARK   16  A    between atoms: _33  and  _34
REMARK   17  A    between atoms: _33  and  _36
REMARK   18  A    between atoms: _36  and  _37
REMARK   19  A    between atoms: _37  and  _38
REMARK   20  A    between atoms: _41  and  _43
REMARK   21  A    between atoms: _43  and  _44
REMARK   22  A    between atoms: _43  and  _46
REMARK   23  A    between atoms: _46  and  _47
REMARK   24  A    between atoms: _49  and  _51
REMARK   25  A    between atoms: _51  and  _52
REMARK   26  A    between atoms: _51  and  _54
REMARK   27  A    between atoms: _54  and  _55
REMARK   28  A    between atoms: _55  and  _56
REMARK   29  A    between atoms: _56  and  _57
REMARK   30  A    between atoms: _57  and  _58
REMARK   31  A    between atoms: _62  and  _64
REMARK   32  A    between atoms: _64  and  _65
REMARK   33  A    between atoms: _64  and  _67
REMARK   34  A    between atoms: _67  and  _68
REMARK   35  A    between atoms: _71  and  _73
REMARK   36  A    between atoms: _73  and  _74
REMARK   37  A    between atoms: _76  and  _78
REMARK   38  A    between atoms: _78  and  _79
REMARK   39  A    between atoms: _78  and  _81
REMARK   40  A    between atoms: _81  and  _82
REMARK   41  A    between atoms: _88  and  _90
REMARK   42  A    between atoms: _90  and  _91
REMARK   43  A    between atoms: _93  and  _95
REMARK   44  A    between atoms: _95  and  _96
REMARK   45  A    between atoms: _95  and  _98
REMARK   46  A    between atoms: _101  and  _103
REMARK   47  A    between atoms: _103  and  _104
REMARK   48  A    between atoms: _107  and  _109
REMARK   49  A    between atoms: _109  and  _110
REMARK   50  A    between atoms: _112  and  _114
REMARK   51  A    between atoms: _114  and  _115
REMARK   52  A    between atoms: _114  and  _117
REMARK   53  A    between atoms: _117  and  _118
REMARK   54  A    between atoms: _120  and  _122
REMARK   55  A    between atoms: _122  and  _123
REMARK   56  A    between atoms: _122  and  _125
REMARK   57  A    between atoms: _125  and  _126
REMARK   58  A    between atoms: _129  and  _131
REMARK   59  A    between atoms: _131  and  _132
REMARK   60  A    between atoms: _131  and  _134
REMARK   61  A    between atoms: _134  and  _135
REMARK   62  A    between atoms: _140  and  _142
REMARK   63  A    between atoms: _142  and  _143
REMARK   64  A    between atoms: _146  and  _148
REMARK   65  A    between atoms: _148  and  _149
REMARK   66  A    between atoms: _148  and  _151
REMARK   67  A    between atoms: _151  and  _152
REMARK   68  A    between atoms: _154  and  _156
REMARK   69  A    between atoms: _156  and  _157
REMARK   70  A    between atoms: _159  and  _161
REMARK   71  A    between atoms: _161  and  _162
REMARK   72  A    between atoms: _161  and  _164
REMARK   73  A    between atoms: _164  and  _165
REMARK   74  A    between atoms: _168  and  _170
REMARK   75  A    between atoms: _170  and  _171
REMARK   76  A    between atoms: _170  and  _173
REMARK   77  A    between atoms: _173  and  _174
REMARK   78  A    between atoms: _174  and  _175
REMARK   79  A    between atoms: _180  and  _182
REMARK   80  A    between atoms: _182  and  _183
REMARK   81  A    between atoms: _182  and  _185
REMARK   82  A    between atoms: _185  and  _186
REMARK   83  A    between atoms: _192  and  _194
REMARK   84  A    between atoms: _194  and  _195
REMARK   85  A    between atoms: _194  and  _197
REMARK   86  A    between atoms: _200  and  _202
REMARK   87  A    between atoms: _202  and  _203
REMARK   88  A    between atoms: _202  and  _205
REMARK   89  A    between atoms: _205  and  _206
REMARK   90  A    between atoms: _211  and  _213
REMARK   91  A    between atoms: _213  and  _214
REMARK   92  A    between atoms: _213  and  _216
REMARK   93  A    between atoms: _216  and  _217
REMARK   94  A    between atoms: _219  and  _221
REMARK   95  A    between atoms: _221  and  _222
REMARK   96  A    between atoms: _221  and  _224
REMARK   97  A    between atoms: _224  and  _225
REMARK   98  A    between atoms: _225  and  _226
REMARK   99  A    between atoms: _226  and  _227
REMARK  100  A    between atoms: _227  and  _228
REMARK  101  A    between atoms: _232  and  _234
REMARK  102  A    between atoms: _234  and  _235
REMARK  103  A    between atoms: _234  and  _237
REMARK  104  A    between atoms: _237  and  _238
REMARK  105  A    between atoms: _241  and  _243
REMARK  106  A    between atoms: _243  and  _244
REMARK  107  A    between atoms: _247  and  _249
REMARK  108  A    between atoms: _249  and  _250
REMARK  109  A    between atoms: _249  and  _252
REMARK  110  A    between atoms: _255  and  _257
REMARK  111  A    between atoms: _257  and  _258
REMARK  112  A    between atoms: _257  and  _260
REMARK  113  A    between atoms: _260  and  _261
REMARK  114  A    between atoms: _261  and  _262
REMARK  115  A    between atoms: _265  and  _267
REMARK  116  A    between atoms: _267  and  _268
REMARK  117  A    between atoms: _267  and  _270
REMARK  118  A    between atoms: _270  and  _271
REMARK  119  A    between atoms: _271  and  _272
REMARK  120  A    between atoms: _274  and  _276
REMARK  121  A    between atoms: _276  and  _277
REMARK  122  A    between atoms: _276  and  _279
REMARK  123  A    between atoms: _279  and  _280
REMARK  124  A    between atoms: _280  and  _281
REMARK  125  A    between atoms: _284  and  _286
REMARK  126  A    between atoms: _286  and  _287
REMARK  127  A    between atoms: _289  and  _291
REMARK  128  A    between atoms: _291  and  _292
REMARK  129  A    between atoms: _291  and  _294
REMARK  130  A    between atoms: _294  and  _295
REMARK  131  A    between atoms: _295  and  _296
REMARK  132  A    between atoms: _296  and  _297
REMARK  133  A    between atoms: _306  and  _308
REMARK  134  A    between atoms: _308  and  _309
REMARK  135  A    between atoms: _308  and  _311
REMARK  136  A    between atoms: _311  and  _312
REMARK  137  A    between atoms: _314  and  _316
REMARK  138  A    between atoms: _316  and  _317
REMARK  139  A    between atoms: _316  and  _319
REMARK  140  A    between atoms: _319  and  _320
REMARK  141  A    between atoms: _323  and  _325
REMARK  142  A    between atoms: _325  and  _326
REMARK  143  A    between atoms: _325  and  _328
REMARK  144  A    between atoms: _328  and  _329
REMARK  145  A    between atoms: _331  and  _333
REMARK  146  A    between atoms: _333  and  _334
REMARK  147  A    between atoms: _333  and  _336
REMARK  148  A    between atoms: _336  and  _337
REMARK  149  A    between atoms: _340  and  _342
REMARK  150  A    between atoms: _342  and  _343
REMARK  151  A    between atoms: _342  and  _345
REMARK  152  A    between atoms: _345  and  _346
REMARK  153  A    between atoms: _351  and  _353
REMARK  154  A    between atoms: _353  and  _354
REMARK  155  A    between atoms: _357  and  _359
REMARK  156  A    between atoms: _359  and  _360
REMARK  157  A    between atoms: _359  and  _362
REMARK  158  A    between atoms: _362  and  _363
REMARK  159  A    between atoms: _366  and  _368
REMARK  160  A    between atoms: _368  and  _369
REMARK  161  A    between atoms: _368  and  _371
REMARK  162  A    between atoms: _371  and  _372
REMARK  163  A    between atoms: _372  and  _373
REMARK  164  A    between atoms: _373  and  _374
REMARK  165  A    between atoms: _374  and  _375
REMARK  166  A    between atoms: _379  and  _381
REMARK  167  A    between atoms: _381  and  _382
REMARK  168  A    between atoms: _385  and  _387
REMARK  169  A    between atoms: _387  and  _388
REMARK  170  A    between atoms: _390  and  _392
REMARK  171  A    between atoms: _392  and  _393
REMARK  172  A    between atoms: _392  and  _395
REMARK  173  A    between atoms: _395  and  _396
REMARK  174  A    between atoms: _398  and  _400
REMARK  175  A    between atoms: _400  and  _401
REMARK  176  A    between atoms: _400  and  _403
REMARK  177  A    between atoms: _403  and  _404
REMARK  178  A    between atoms: _410  and  _412
REMARK  179  A    between atoms: _412  and  _413
REMARK  180  A    between atoms: _412  and  _415
REMARK  181  A    between atoms: _415  and  _416
REMARK  182  A    between atoms: _419  and  _421
REMARK  183  A    between atoms: _421  and  _422
REMARK  184  A    between atoms: _421  and  _424
REMARK  185  A    between atoms: _424  and  _425
REMARK  186  A    between atoms: _428  and  _430
REMARK  187  A    between atoms: _430  and  _431
REMARK  188  A    between atoms: _430  and  _433
REMARK  189  A    between atoms: _433  and  _434
REMARK  190  A    between atoms: _437  and  _439
REMARK  191  A    between atoms: _439  and  _440
REMARK  192  A    between atoms: _439  and  _442
REMARK  193  A    between atoms: _442  and  _443
REMARK  194  A    between atoms: _446  and  _448
REMARK  195  A    between atoms: _448  and  _449
REMARK  196  A    between atoms: _448  and  _451
REMARK  197  A    between atoms: _451  and  _452
REMARK  198  A    between atoms: _454  and  _456
REMARK  199  A    between atoms: _456  and  _457
REMARK  200  A    between atoms: _460  and  _462
REMARK  201  A    between atoms: _462  and  _463
REMARK  202  A    between atoms: _462  and  _465
REMARK  203  A    between atoms: _465  and  _466
REMARK  204  A    between atoms: _472  and  _474
REMARK  205  A    between atoms: _474  and  _475
REMARK  206  A    between atoms: _474  and  _477
REMARK  207  A    between atoms: _477  and  _478
REMARK  208  A    between atoms: _481  and  _483
REMARK  209  A    between atoms: _483  and  _484
REMARK  210  A    between atoms: _483  and  _486
REMARK  211  A    between atoms: _486  and  _487
REMARK  212  A    between atoms: _492  and  _494
REMARK  213  A    between atoms: _494  and  _495
REMARK  214  A    between atoms: _494  and  _497
REMARK  215  A    between atoms: _497  and  _498
REMARK  216  A    between atoms: _504  and  _506
REMARK  217  A    between atoms: _506  and  _507
REMARK  218  A    between atoms: _506  and  _509
REMARK  219  A    between atoms: _509  and  _510
REMARK  220  A    between atoms: _514  and  _515
REMARK                            x       y       z     vdW  Elec       q    Type
REMARK                         _______ _______ _______ _____ _____    ______ ____
ROOT
ATOM      1  O   HOH     1      10.409  47.751 -44.572  0.00  0.00    +0.000 OA
ENDROOT
TORSDOF 0
REMARK  Name = ../refined-set-2016/4ynb/4ynb_pocket.pdb
REMARK  220 active torsions:
REMARK  status: ('A' for Active; 'I' for Inactive)
REMARK    1  A    between atoms: _1  and  _3
REMARK    2  A    between atoms: _3  and  _4
REMARK    3  A    between atoms: _6  and  _8
REMARK    4  A    between atoms: _8  and  _9
REMARK    5  A    between atoms: _12  and  _14
REMARK    6  A    between atoms: _14  and  _15
REMARK    7  A    between atoms: _14  and  _17
REMARK    8  A    between atoms: _17  and  _18
REMARK    9  A    between atoms: _18  and  _19
REMARK   10  A    between atoms: _21  and  _23
REMARK   11  A    between atoms: _23  and  _24
REMARK   12  A    between atoms: _23  and  _26
REMARK   13  A    between atoms: _26  and  _27
REMARK   14  A    between atoms: _27  and  _28
REMARK   15  A    between atoms: _31  and  _33
REMARK   16  A    between atoms: _33  and  _34
REMARK   17  A    between atoms: _33  and  _36
REMARK   18  A    between atoms: _36  and  _37
REMARK   19  A    between atoms: _37  and  _38
REMARK   20  A    between atoms: _41  and  _43
REMARK   21  A    between atoms: _43  and  _44
REMARK   22  A    between atoms: _43  and  _46
REMARK   23  A    between atoms: _46  and  _47
REMARK   24  A    between atoms: _49  and  _51
REMARK   25  A    between atoms: _51  and  _52
REMARK   26  A    between atoms: _51  and  _54
REMARK   27  A    between atoms: _54  and  _55
REMARK   28  A    between atoms: _55  and  _56
REMARK   29  A    between atoms: _56  and  _57
REMARK   30  A    between atoms: _57  and  _58
REMARK   31  A    between atoms: _62  and  _64
REMARK   32  A    between atoms: _64  and  _65
REMARK   33  A    between atoms: _64  and  _67
REMARK   34  A    between atoms: _67  and  _68
REMARK   35  A    between atoms: _71  and  _73
REMARK   36  A    between atoms: _73  and  _74
REMARK   37  A    between atoms: _76  and  _78
REMARK   38  A    between atoms: _78  and  _79
REMARK   39  A    between atoms: _78  and  _81
REMARK   40  A    between atoms: _81  and  _82
REMARK   41  A    between atoms: _88  and  _90
REMARK   42  A    between atoms: _90  and  _91
REMARK   43  A    between atoms: _93  and  _95
REMARK   44  A    between atoms: _95  and  _96
REMARK   45  A    between atoms: _95  and  _98
REMARK   46  A    between atoms: _101  and  _103
REMARK   47  A    between atoms: _103  and  _104
REMARK   48  A    between atoms: _107  and  _109
REMARK   49  A    between atoms: _109  and  _110
REMARK   50  A    between atoms: _112  and  _114
REMARK   51  A    between atoms: _114  and  _115
REMARK   52  A    between atoms: _114  and  _117
REMARK   53  A    between atoms: _117  and  _118
REMARK   54  A    between atoms: _120  and  _122
REMARK   55  A    between atoms: _122  and  _123
REMARK   56  A    between atoms: _122  and  _125
REMARK   57  A    between atoms: _125  and  _126
REMARK   58  A    between atoms: _129  and  _131
REMARK   59  A    between atoms: _131  and  _132
REMARK   60  A    between atoms: _131  and  _134
REMARK   61  A    between atoms: _134  and  _135
REMARK   62  A    between atoms: _140  and  _142
REMARK   63  A    between atoms: _142  and  _143
REMARK   64  A    between atoms: _146  and  _148
REMARK   65  A    between atoms: _148  and  _149
REMARK   66  A    between atoms: _148  and  _151
REMARK   67  A    between atoms: _151  and  _152
REMARK   68  A    between atoms: _154  and  _156
REMARK   69  A    between atoms: _156  and  _157
REMARK   70  A    between atoms: _159  and  _161
REMARK   71  A    between atoms: _161  and  _162
REMARK   72  A    between atoms: _161  and  _164
REMARK   73  A    between atoms: _164  and  _165
REMARK   74  A    between atoms: _168  and  _170
REMARK   75  A    between atoms: _170  and  _171
REMARK   76  A    between atoms: _170  and  _173
REMARK   77  A    between atoms: _173  and  _174
REMARK   78  A    between atoms: _174  and  _175
REMARK   79  A    between atoms: _180  and  _182
REMARK   80  A    between atoms: _182  and  _183
REMARK   81  A    between atoms: _182  and  _185
REMARK   82  A    between atoms: _185  and  _186
REMARK   83  A    between atoms: _192  and  _194
REMARK   84  A    between atoms: _194  and  _195
REMARK   85  A    between atoms: _194  and  _197
REMARK   86  A    between atoms: _200  and  _202
REMARK   87  A    between atoms: _202  and  _203
REMARK   88  A    between atoms: _202  and  _205
REMARK   89  A    between atoms: _205  and  _206
REMARK   90  A    between atoms: _211  and  _213
REMARK   91  A    between atoms: _213  and  _214
REMARK   92  A    between atoms: _213  and  _216
REMARK   93  A    between atoms: _216  and  _217
REMARK   94  A    between atoms: _219  and  _221
REMARK   95  A    between atoms: _221  and  _222
REMARK   96  A    between atoms: _221  and  _224
REMARK   97  A    between atoms: _224  and  _225
REMARK   98  A    between atoms: _225  and  _226
REMARK   99  A    between atoms: _226  and  _227
REMARK  100  A    between atoms: _227  and  _228
REMARK  101  A    between atoms: _232  and  _234
REMARK  102  A    between atoms: _234  and  _235
REMARK  103  A    between atoms: _234  and  _237
REMARK  104  A    between atoms: _237  and  _238
REMARK  105  A    between atoms: _241  and  _243
REMARK  106  A    between atoms: _243  and  _244
REMARK  107  A    between atoms: _247  and  _249
REMARK  108  A    between atoms: _249  and  _250
REMARK  109  A    between atoms: _249  and  _252
REMARK  110  A    between atoms: _255  and  _257
REMARK  111  A    between atoms: _257  and  _258
REMARK  112  A    between atoms: _257  and  _260
REMARK  113  A    between atoms: _260  and  _261
REMARK  114  A    between atoms: _261  and  _262
REMARK  115  A    between atoms: _265  and  _267
REMARK  116  A    between atoms: _267  and  _268
REMARK  117  A    between atoms: _267  and  _270
REMARK  118  A    between atoms: _270  and  _271
REMARK  119  A    between atoms: _271  and  _272
REMARK  120  A    between atoms: _274  and  _276
REMARK  121  A    between atoms: _276  and  _277
REMARK  122  A    between atoms: _276  and  _279
REMARK  123  A    between atoms: _279  and  _280
REMARK  124  A    between atoms: _280  and  _281
REMARK  125  A    between atoms: _284  and  _286
REMARK  126  A    between atoms: _286  and  _287
REMARK  127  A    between atoms: _289  and  _291
REMARK  128  A    between atoms: _291  and  _292
REMARK  129  A    between atoms: _291  and  _294
REMARK  130  A    between atoms: _294  and  _295
REMARK  131  A    between atoms: _295  and  _296
REMARK  132  A    between atoms: _296  and  _297
REMARK  133  A    between atoms: _306  and  _308
REMARK  134  A    between atoms: _308  and  _309
REMARK  135  A    between atoms: _308  and  _311
REMARK  136  A    between atoms: _311  and  _312
REMARK  137  A    between atoms: _314  and  _316
REMARK  138  A    between atoms: _316  and  _317
REMARK  139  A    between atoms: _316  and  _319
REMARK  140  A    between atoms: _319  and  _320
REMARK  141  A    between atoms: _323  and  _325
REMARK  142  A    between atoms: _325  and  _326
REMARK  143  A    between atoms: _325  and  _328
REMARK  144  A    between atoms: _328  and  _329
REMARK  145  A    between atoms: _331  and  _333
REMARK  146  A    between atoms: _333  and  _334
REMARK  147  A    between atoms: _333  and  _336
REMARK  148  A    between atoms: _336  and  _337
REMARK  149  A    between atoms: _340  and  _342
REMARK  150  A    between atoms: _342  and  _343
REMARK  151  A    between atoms: _342  and  _345
REMARK  152  A    between atoms: _345  and  _346
REMARK  153  A    between atoms: _351  and  _353
REMARK  154  A    between atoms: _353  and  _354
REMARK  155  A    between atoms: _357  and  _359
REMARK  156  A    between atoms: _359  and  _360
REMARK  157  A    between atoms: _359  and  _362
REMARK  158  A    between atoms: _362  and  _363
REMARK  159  A    between atoms: _366  and  _368
REMARK  160  A    between atoms: _368  and  _369
REMARK  161  A    between atoms: _368  and  _371
REMARK  162  A    between atoms: _371  and  _372
REMARK  163  A    between atoms: _372  and  _373
REMARK  164  A    between atoms: _373  and  _374
REMARK  165  A    between atoms: _374  and  _375
REMARK  166  A    between atoms: _379  and  _381
REMARK  167  A    between atoms: _381  and  _382
REMARK  168  A    between atoms: _385  and  _387
REMARK  169  A    between atoms: _387  and  _388
REMARK  170  A    between atoms: _390  and  _392
REMARK  171  A    between atoms: _392  and  _393
REMARK  172  A    between atoms: _392  and  _395
REMARK  173  A    between atoms: _395  and  _396
REMARK  174  A    between atoms: _398  and  _400
REMARK  175  A    between atoms: _400  and  _401
REMARK  176  A    between atoms: _400  and  _403
REMARK  177  A    between atoms: _403  and  _404
REMARK  178  A    between atoms: _410  and  _412
REMARK  179  A    between atoms: _412  and  _413
REMARK  180  A    between atoms: _412  and  _415
REMARK  181  A    between atoms: _415  and  _416
REMARK  182  A    between atoms: _419  and  _421
REMARK  183  A    between atoms: _421  and  _422
REMARK  184  A    between atoms: _421  and  _424
REMARK  185  A    between atoms: _424  and  _425
REMARK  186  A    between atoms: _428  and  _430
REMARK  187  A    between atoms: _430  and  _431
REMARK  188  A    between atoms: _430  and  _433
REMARK  189  A    between atoms: _433  and  _434
REMARK  190  A    between atoms: _437  and  _439
REMARK  191  A    between atoms: _439  and  _440
REMARK  192  A    between atoms: _439  and  _442
REMARK  193  A    between atoms: _442  and  _443
REMARK  194  A    between atoms: _446  and  _448
REMARK  195  A    between atoms: _448  and  _449
REMARK  196  A    between atoms: _448  and  _451
REMARK  197  A    between atoms: _451  and  _452
REMARK  198  A    between atoms: _454  and  _456
REMARK  199  A    between atoms: _456  and  _457
REMARK  200  A    between atoms: _460  and  _462
REMARK  201  A    between atoms: _462  and  _463
REMARK  202  A    between atoms: _462  and  _465
REMARK  203  A    between atoms: _465  and  _466
REMARK  204  A    between atoms: _472  and  _474
REMARK  205  A    between atoms: _474  and  _475
REMARK  206  A    between atoms: _474  and  _477
REMARK  207  A    between atoms: _477  and  _478
REMARK  208  A    between atoms: _481  and  _483
REMARK  209  A    between atoms: _483  and  _484
REMARK  210  A    between atoms: _483  and  _486
REMARK  211  A    between atoms: _486  and  _487
REMARK  212  A    between atoms: _492  and  _494
REMARK  213  A    between atoms: _494  and  _495
REMARK  214  A    between atoms: _494  and  _497
REMARK  215  A    between atoms: _497  and  _498
REMARK  216  A    between atoms: _504  and  _506
REMARK  217  A    between atoms: _506  and  _507
REMARK  218  A    between atoms: _506  and  _509
REMARK  219  A    between atoms: _509  and  _510
REMARK  220  A    between atoms: _514  and  _515
REMARK                            x       y       z     vdW  Elec       q    Type
REMARK                         _______ _______ _______ _____ _____    ______ ____
ROOT
ATOM      1  O   HOH     1      18.930  40.081 -39.786  0.00  0.00    +0.000 OA
ENDROOT
TORSDOF 0
REMARK  Name = ../refined-set-2016/4ynb/4ynb_pocket.pdb
REMARK  220 active torsions:
REMARK  status: ('A' for Active; 'I' for Inactive)
REMARK    1  A    between atoms: _1  and  _3
REMARK    2  A    between atoms: _3  and  _4
REMARK    3  A    between atoms: _6  and  _8
REMARK    4  A    between atoms: _8  and  _9
REMARK    5  A    between atoms: _12  and  _14
REMARK    6  A    between atoms: _14  and  _15
REMARK    7  A    between atoms: _14  and  _17
REMARK    8  A    between atoms: _17  and  _18
REMARK    9  A    between atoms: _18  and  _19
REMARK   10  A    between atoms: _21  and  _23
REMARK   11  A    between atoms: _23  and  _24
REMARK   12  A    between atoms: _23  and  _26
REMARK   13  A    between atoms: _26  and  _27
REMARK   14  A    between atoms: _27  and  _28
REMARK   15  A    between atoms: _31  and  _33
REMARK   16  A    between atoms: _33  and  _34
REMARK   17  A    between atoms: _33  and  _36
REMARK   18  A    between atoms: _36  and  _37
REMARK   19  A    between atoms: _37  and  _38
REMARK   20  A    between atoms: _41  and  _43
REMARK   21  A    between atoms: _43  and  _44
REMARK   22  A    between atoms: _43  and  _46
REMARK   23  A    between atoms: _46  and  _47
REMARK   24  A    between atoms: _49  and  _51
REMARK   25  A    between atoms: _51  and  _52
REMARK   26  A    between atoms: _51  and  _54
REMARK   27  A    between atoms: _54  and  _55
REMARK   28  A    between atoms: _55  and  _56
REMARK   29  A    between atoms: _56  and  _57
REMARK   30  A    between atoms: _57  and  _58
REMARK   31  A    between atoms: _62  and  _64
REMARK   32  A    between atoms: _64  and  _65
REMARK   33  A    between atoms: _64  and  _67
REMARK   34  A    between atoms: _67  and  _68
REMARK   35  A    between atoms: _71  and  _73
REMARK   36  A    between atoms: _73  and  _74
REMARK   37  A    between atoms: _76  and  _78
REMARK   38  A    between atoms: _78  and  _79
REMARK   39  A    between atoms: _78  and  _81
REMARK   40  A    between atoms: _81  and  _82
REMARK   41  A    between atoms: _88  and  _90
REMARK   42  A    between atoms: _90  and  _91
REMARK   43  A    between atoms: _93  and  _95
REMARK   44  A    between atoms: _95  and  _96
REMARK   45  A    between atoms: _95  and  _98
REMARK   46  A    between atoms: _101  and  _103
REMARK   47  A    between atoms: _103  and  _104
REMARK   48  A    between atoms: _107  and  _109
REMARK   49  A    between atoms: _109  and  _110
REMARK   50  A    between atoms: _112  and  _114
REMARK   51  A    between atoms: _114  and  _115
REMARK   52  A    between atoms: _114  and  _117
REMARK   53  A    between atoms: _117  and  _118
REMARK   54  A    between atoms: _120  and  _122
REMARK   55  A    between atoms: _122  and  _123
REMARK   56  A    between atoms: _122  and  _125
REMARK   57  A    between atoms: _125  and  _126
REMARK   58  A    between atoms: _129  and  _131
REMARK   59  A    between atoms: _131  and  _132
REMARK   60  A    between atoms: _131  and  _134
REMARK   61  A    between atoms: _134  and  _135
REMARK   62  A    between atoms: _140  and  _142
REMARK   63  A    between atoms: _142  and  _143
REMARK   64  A    between atoms: _146  and  _148
REMARK   65  A    between atoms: _148  and  _149
REMARK   66  A    between atoms: _148  and  _151
REMARK   67  A    between atoms: _151  and  _152
REMARK   68  A    between atoms: _154  and  _156
REMARK   69  A    between atoms: _156  and  _157
REMARK   70  A    between atoms: _159  and  _161
REMARK   71  A    between atoms: _161  and  _162
REMARK   72  A    between atoms: _161  and  _164
REMARK   73  A    between atoms: _164  and  _165
REMARK   74  A    between atoms: _168  and  _170
REMARK   75  A    between atoms: _170  and  _171
REMARK   76  A    between atoms: _170  and  _173
REMARK   77  A    between atoms: _173  and  _174
REMARK   78  A    between atoms: _174  and  _175
REMARK   79  A    between atoms: _180  and  _182
REMARK   80  A    between atoms: _182  and  _183
REMARK   81  A    between atoms: _182  and  _185
REMARK   82  A    between atoms: _185  and  _186
REMARK   83  A    between atoms: _192  and  _194
REMARK   84  A    between atoms: _194  and  _195
REMARK   85  A    between atoms: _194  and  _197
REMARK   86  A    between atoms: _200  and  _202
REMARK   87  A    between atoms: _202  and  _203
REMARK   88  A    between atoms: _202  and  _205
REMARK   89  A    between atoms: _205  and  _206
REMARK   90  A    between atoms: _211  and  _213
REMARK   91  A    between atoms: _213  and  _214
REMARK   92  A    between atoms: _213  and  _216
REMARK   93  A    between atoms: _216  and  _217
REMARK   94  A    between atoms: _219  and  _221
REMARK   95  A    between atoms: _221  and  _222
REMARK   96  A    between atoms: _221  and  _224
REMARK   97  A    between atoms: _224  and  _225
REMARK   98  A    between atoms: _225  and  _226
REMARK   99  A    between atoms: _226  and  _227
REMARK  100  A    between atoms: _227  and  _228
REMARK  101  A    between atoms: _232  and  _234
REMARK  102  A    between atoms: _234  and  _235
REMARK  103  A    between atoms: _234  and  _237
REMARK  104  A    between atoms: _237  and  _238
REMARK  105  A    between atoms: _241  and  _243
REMARK  106  A    between atoms: _243  and  _244
REMARK  107  A    between atoms: _247  and  _249
REMARK  108  A    between atoms: _249  and  _250
REMARK  109  A    between atoms: _249  and  _252
REMARK  110  A    between atoms: _255  and  _257
REMARK  111  A    between atoms: _257  and  _258
REMARK  112  A    between atoms: _257  and  _260
REMARK  113  A    between atoms: _260  and  _261
REMARK  114  A    between atoms: _261  and  _262
REMARK  115  A    between atoms: _265  and  _267
REMARK  116  A    between atoms: _267  and  _268
REMARK  117  A    between atoms: _267  and  _270
REMARK  118  A    between atoms: _270  and  _271
REMARK  119  A    between atoms: _271  and  _272
REMARK  120  A    between atoms: _274  and  _276
REMARK  121  A    between atoms: _276  and  _277
REMARK  122  A    between atoms: _276  and  _279
REMARK  123  A    between atoms: _279  and  _280
REMARK  124  A    between atoms: _280  and  _281
REMARK  125  A    between atoms: _284  and  _286
REMARK  126  A    between atoms: _286  and  _287
REMARK  127  A    between atoms: _289  and  _291
REMARK  128  A    between atoms: _291  and  _292
REMARK  129  A    between atoms: _291  and  _294
REMARK  130  A    between atoms: _294  and  _295
REMARK  131  A    between atoms: _295  and  _296
REMARK  132  A    between atoms: _296  and  _297
REMARK  133  A    between atoms: _306  and  _308
REMARK  134  A    between atoms: _308  and  _309
REMARK  135  A    between atoms: _308  and  _311
REMARK  136  A    between atoms: _311  and  _312
REMARK  137  A    between atoms: _314  and  _316
REMARK  138  A    between atoms: _316  and  _317
REMARK  139  A    between atoms: _316  and  _319
REMARK  140  A    between atoms: _319  and  _320
REMARK  141  A    between atoms: _323  and  _325
REMARK  142  A    between atoms: _325  and  _326
REMARK  143  A    between atoms: _325  and  _328
REMARK  144  A    between atoms: _328  and  _329
REMARK  145  A    between atoms: _331  and  _333
REMARK  146  A    between atoms: _333  and  _334
REMARK  147  A    between atoms: _333  and  _336
REMARK  148  A    between atoms: _336  and  _337
REMARK  149  A    between atoms: _340  and  _342
REMARK  150  A    between atoms: _342  and  _343
REMARK  151  A    between atoms: _342  and  _345
REMARK  152  A    between atoms: _345  and  _346
REMARK  153  A    between atoms: _351  and  _353
REMARK  154  A    between atoms: _353  and  _354
REMARK  155  A    between atoms: _357  and  _359
REMARK  156  A    between atoms: _359  and  _360
REMARK  157  A    between atoms: _359  and  _362
REMARK  158  A    between atoms: _362  and  _363
REMARK  159  A    between atoms: _366  and  _368
REMARK  160  A    between atoms: _368  and  _369
REMARK  161  A    between atoms: _368  and  _371
REMARK  162  A    between atoms: _371  and  _372
REMARK  163  A    between atoms: _372  and  _373
REMARK  164  A    between atoms: _373  and  _374
REMARK  165  A    between atoms: _374  and  _375
REMARK  166  A    between atoms: _379  and  _381
REMARK  167  A    between atoms: _381  and  _382
REMARK  168  A    between atoms: _385  and  _387
REMARK  169  A    between atoms: _387  and  _388
REMARK  170  A    between atoms: _390  and  _392
REMARK  171  A    between atoms: _392  and  _393
REMARK  172  A    between atoms: _392  and  _395
REMARK  173  A    between atoms: _395  and  _396
REMARK  174  A    between atoms: _398  and  _400
REMARK  175  A    between atoms: _400  and  _401
REMARK  176  A    between atoms: _400  and  _403
REMARK  177  A    between atoms: _403  and  _404
REMARK  178  A    between atoms: _410  and  _412
REMARK  179  A    between atoms: _412  and  _413
REMARK  180  A    between atoms: _412  and  _415
REMARK  181  A    between atoms: _415  and  _416
REMARK  182  A    between atoms: _419  and  _421
REMARK  183  A    between atoms: _421  and  _422
REMARK  184  A    between atoms: _421  and  _424
REMARK  185  A    between atoms: _424  and  _425
REMARK  186  A    between atoms: _428  and  _430
REMARK  187  A    between atoms: _430  and  _431
REMARK  188  A    between atoms: _430  and  _433
REMARK  189  A    between atoms: _433  and  _434
REMARK  190  A    between atoms: _437  and  _439
REMARK  191  A    between atoms: _439  and  _440
REMARK  192  A    between atoms: _439  and  _442
REMARK  193  A    between atoms: _442  and  _443
REMARK  194  A    between atoms: _446  and  _448
REMARK  195  A    between atoms: _448  and  _449
REMARK  196  A    between atoms: _448  and  _451
REMARK  197  A    between atoms: _451  and  _452
REMARK  198  A    between atoms: _454  and  _456
REMARK  199  A    between atoms: _456  and  _457
REMARK  200  A    between atoms: _460  and  _462
REMARK  201  A    between atoms: _462  and  _463
REMARK  202  A    between atoms: _462  and  _465
REMARK  203  A    between atoms: _465  and  _466
REMARK  204  A    between atoms: _472  and  _474
REMARK  205  A    between atoms: _474  and  _475
REMARK  206  A    between atoms: _474  and  _477
REMARK  207  A    between atoms: _477  and  _478
REMARK  208  A    between atoms: _481  and  _483
REMARK  209  A    between atoms: _483  and  _484
REMARK  210  A    between atoms: _483  and  _486
REMARK  211  A    between atoms: _486  and  _487
REMARK  212  A    between atoms: _492  and  _494
REMARK  213  A    between atoms: _494  and  _495
REMARK  214  A    between atoms: _494  and  _497
REMARK  215  A    between atoms: _497  and  _498
REMARK  216  A    between atoms: _504  and  _506
REMARK  217  A    between atoms: _506  and  _507
REMARK  218  A    between atoms: _506  and  _509
REMARK  219  A    between atoms: _509  and  _510
REMARK  220  A    between atoms: _514  and  _515
REMARK                            x       y       z     vdW  Elec       q    Type
REMARK                         _______ _______ _______ _____ _____    ______ ____
ROOT
ATOM      1  O   HOH     1      15.456  39.241 -35.278  0.00  0.00    +0.000 OA
ENDROOT
TORSDOF 0
REMARK  Name = ../refined-set-2016/4ynb/4ynb_pocket.pdb
REMARK  220 active torsions:
REMARK  status: ('A' for Active; 'I' for Inactive)
REMARK    1  A    between atoms: _1  and  _3
REMARK    2  A    between atoms: _3  and  _4
REMARK    3  A    between atoms: _6  and  _8
REMARK    4  A    between atoms: _8  and  _9
REMARK    5  A    between atoms: _12  and  _14
REMARK    6  A    between atoms: _14  and  _15
REMARK    7  A    between atoms: _14  and  _17
REMARK    8  A    between atoms: _17  and  _18
REMARK    9  A    between atoms: _18  and  _19
REMARK   10  A    between atoms: _21  and  _23
REMARK   11  A    between atoms: _23  and  _24
REMARK   12  A    between atoms: _23  and  _26
REMARK   13  A    between atoms: _26  and  _27
REMARK   14  A    between atoms: _27  and  _28
REMARK   15  A    between atoms: _31  and  _33
REMARK   16  A    between atoms: _33  and  _34
REMARK   17  A    between atoms: _33  and  _36
REMARK   18  A    between atoms: _36  and  _37
REMARK   19  A    between atoms: _37  and  _38
REMARK   20  A    between atoms: _41  and  _43
REMARK   21  A    between atoms: _43  and  _44
REMARK   22  A    between atoms: _43  and  _46
REMARK   23  A    between atoms: _46  and  _47
REMARK   24  A    between atoms: _49  and  _51
REMARK   25  A    between atoms: _51  and  _52
REMARK   26  A    between atoms: _51  and  _54
REMARK   27  A    between atoms: _54  and  _55
REMARK   28  A    between atoms: _55  and  _56
REMARK   29  A    between atoms: _56  and  _57
REMARK   30  A    between atoms: _57  and  _58
REMARK   31  A    between atoms: _62  and  _64
REMARK   32  A    between atoms: _64  and  _65
REMARK   33  A    between atoms: _64  and  _67
REMARK   34  A    between atoms: _67  and  _68
REMARK   35  A    between atoms: _71  and  _73
REMARK   36  A    between atoms: _73  and  _74
REMARK   37  A    between atoms: _76  and  _78
REMARK   38  A    between atoms: _78  and  _79
REMARK   39  A    between atoms: _78  and  _81
REMARK   40  A    between atoms: _81  and  _82
REMARK   41  A    between atoms: _88  and  _90
REMARK   42  A    between atoms: _90  and  _91
REMARK   43  A    between atoms: _93  and  _95
REMARK   44  A    between atoms: _95  and  _96
REMARK   45  A    between atoms: _95  and  _98
REMARK   46  A    between atoms: _101  and  _103
REMARK   47  A    between atoms: _103  and  _104
REMARK   48  A    between atoms: _107  and  _109
REMARK   49  A    between atoms: _109  and  _110
REMARK   50  A    between atoms: _112  and  _114
REMARK   51  A    between atoms: _114  and  _115
REMARK   52  A    between atoms: _114  and  _117
REMARK   53  A    between atoms: _117  and  _118
REMARK   54  A    between atoms: _120  and  _122
REMARK   55  A    between atoms: _122  and  _123
REMARK   56  A    between atoms: _122  and  _125
REMARK   57  A    between atoms: _125  and  _126
REMARK   58  A    between atoms: _129  and  _131
REMARK   59  A    between atoms: _131  and  _132
REMARK   60  A    between atoms: _131  and  _134
REMARK   61  A    between atoms: _134  and  _135
REMARK   62  A    between atoms: _140  and  _142
REMARK   63  A    between atoms: _142  and  _143
REMARK   64  A    between atoms: _146  and  _148
REMARK   65  A    between atoms: _148  and  _149
REMARK   66  A    between atoms: _148  and  _151
REMARK   67  A    between atoms: _151  and  _152
REMARK   68  A    between atoms: _154  and  _156
REMARK   69  A    between atoms: _156  and  _157
REMARK   70  A    between atoms: _159  and  _161
REMARK   71  A    between atoms: _161  and  _162
REMARK   72  A    between atoms: _161  and  _164
REMARK   73  A    between atoms: _164  and  _165
REMARK   74  A    between atoms: _168  and  _170
REMARK   75  A    between atoms: _170  and  _171
REMARK   76  A    between atoms: _170  and  _173
REMARK   77  A    between atoms: _173  and  _174
REMARK   78  A    between atoms: _174  and  _175
REMARK   79  A    between atoms: _180  and  _182
REMARK   80  A    between atoms: _182  and  _183
REMARK   81  A    between atoms: _182  and  _185
REMARK   82  A    between atoms: _185  and  _186
REMARK   83  A    between atoms: _192  and  _194
REMARK   84  A    between atoms: _194  and  _195
REMARK   85  A    between atoms: _194  and  _197
REMARK   86  A    between atoms: _200  and  _202
REMARK   87  A    between atoms: _202  and  _203
REMARK   88  A    between atoms: _202  and  _205
REMARK   89  A    between atoms: _205  and  _206
REMARK   90  A    between atoms: _211  and  _213
REMARK   91  A    between atoms: _213  and  _214
REMARK   92  A    between atoms: _213  and  _216
REMARK   93  A    between atoms: _216  and  _217
REMARK   94  A    between atoms: _219  and  _221
REMARK   95  A    between atoms: _221  and  _222
REMARK   96  A    between atoms: _221  and  _224
REMARK   97  A    between atoms: _224  and  _225
REMARK   98  A    between atoms: _225  and  _226
REMARK   99  A    between atoms: _226  and  _227
REMARK  100  A    between atoms: _227  and  _228
REMARK  101  A    between atoms: _232  and  _234
REMARK  102  A    between atoms: _234  and  _235
REMARK  103  A    between atoms: _234  and  _237
REMARK  104  A    between atoms: _237  and  _238
REMARK  105  A    between atoms: _241  and  _243
REMARK  106  A    between atoms: _243  and  _244
REMARK  107  A    between atoms: _247  and  _249
REMARK  108  A    between atoms: _249  and  _250
REMARK  109  A    between atoms: _249  and  _252
REMARK  110  A    between atoms: _255  and  _257
REMARK  111  A    between atoms: _257  and  _258
REMARK  112  A    between atoms: _257  and  _260
REMARK  113  A    between atoms: _260  and  _261
REMARK  114  A    between atoms: _261  and  _262
REMARK  115  A    between atoms: _265  and  _267
REMARK  116  A    between atoms: _267  and  _268
REMARK  117  A    between atoms: _267  and  _270
REMARK  118  A    between atoms: _270  and  _271
REMARK  119  A    between atoms: _271  and  _272
REMARK  120  A    between atoms: _274  and  _276
REMARK  121  A    between atoms: _276  and  _277
REMARK  122  A    between atoms: _276  and  _279
REMARK  123  A    between atoms: _279  and  _280
REMARK  124  A    between atoms: _280  and  _281
REMARK  125  A    between atoms: _284  and  _286
REMARK  126  A    between atoms: _286  and  _287
REMARK  127  A    between atoms: _289  and  _291
REMARK  128  A    between atoms: _291  and  _292
REMARK  129  A    between atoms: _291  and  _294
REMARK  130  A    between atoms: _294  and  _295
REMARK  131  A    between atoms: _295  and  _296
REMARK  132  A    between atoms: _296  and  _297
REMARK  133  A    between atoms: _306  and  _308
REMARK  134  A    between atoms: _308  and  _309
REMARK  135  A    between atoms: _308  and  _311
REMARK  136  A    between atoms: _311  and  _312
REMARK  137  A    between atoms: _314  and  _316
REMARK  138  A    between atoms: _316  and  _317
REMARK  139  A    between atoms: _316  and  _319
REMARK  140  A    between atoms: _319  and  _320
REMARK  141  A    between atoms: _323  and  _325
REMARK  142  A    between atoms: _325  and  _326
REMARK  143  A    between atoms: _325  and  _328
REMARK  144  A    between atoms: _328  and  _329
REMARK  145  A    between atoms: _331  and  _333
REMARK  146  A    between atoms: _333  and  _334
REMARK  147  A    between atoms: _333  and  _336
REMARK  148  A    between atoms: _336  and  _337
REMARK  149  A    between atoms: _340  and  _342
REMARK  150  A    between atoms: _342  and  _343
REMARK  151  A    between atoms: _342  and  _345
REMARK  152  A    between atoms: _345  and  _346
REMARK  153  A    between atoms: _351  and  _353
REMARK  154  A    between atoms: _353  and  _354
REMARK  155  A    between atoms: _357  and  _359
REMARK  156  A    between atoms: _359  and  _360
REMARK  157  A    between atoms: _359  and  _362
REMARK  158  A    between atoms: _362  and  _363
REMARK  159  A    between atoms: _366  and  _368
REMARK  160  A    between atoms: _368  and  _369
REMARK  161  A    between atoms: _368  and  _371
REMARK  162  A    between atoms: _371  and  _372
REMARK  163  A    between atoms: _372  and  _373
REMARK  164  A    between atoms: _373  and  _374
REMARK  165  A    between atoms: _374  and  _375
REMARK  166  A    between atoms: _379  and  _381
REMARK  167  A    between atoms: _381  and  _382
REMARK  168  A    between atoms: _385  and  _387
REMARK  169  A    between atoms: _387  and  _388
REMARK  170  A    between atoms: _390  and  _392
REMARK  171  A    between atoms: _392  and  _393
REMARK  172  A    between atoms: _392  and  _395
REMARK  173  A    between atoms: _395  and  _396
REMARK  174  A    between atoms: _398  and  _400
REMARK  175  A    between atoms: _400  and  _401
REMARK  176  A    between atoms: _400  and  _403
REMARK  177  A    between atoms: _403  and  _404
REMARK  178  A    between atoms: _410  and  _412
REMARK  179  A    between atoms: _412  and  _413
REMARK  180  A    between atoms: _412  and  _415
REMARK  181  A    between atoms: _415  and  _416
REMARK  182  A    between atoms: _419  and  _421
REMARK  183  A    between atoms: _421  and  _422
REMARK  184  A    between atoms: _421  and  _424
REMARK  185  A    between atoms: _424  and  _425
REMARK  186  A    between atoms: _428  and  _430
REMARK  187  A    between atoms: _430  and  _431
REMARK  188  A    between atoms: _430  and  _433
REMARK  189  A    between atoms: _433  and  _434
REMARK  190  A    between atoms: _437  and  _439
REMARK  191  A    between atoms: _439  and  _440
REMARK  192  A    between atoms: _439  and  _442
REMARK  193  A    between atoms: _442  and  _443
REMARK  194  A    between atoms: _446  and  _448
REMARK  195  A    between atoms: _448  and  _449
REMARK  196  A    between atoms: _448  and  _451
REMARK  197  A    between atoms: _451  and  _452
REMARK  198  A    between atoms: _454  and  _456
REMARK  199  A    between atoms: _456  and  _457
REMARK  200  A    between atoms: _460  and  _462
REMARK  201  A    between atoms: _462  and  _463
REMARK  202  A    between atoms: _462  and  _465
REMARK  203  A    between atoms: _465  and  _466
REMARK  204  A    between atoms: _472  and  _474
REMARK  205  A    between atoms: _474  and  _475
REMARK  206  A    between atoms: _474  and  _477
REMARK  207  A    between atoms: _477  and  _478
REMARK  208  A    between atoms: _481  and  _483
REMARK  209  A    between atoms: _483  and  _484
REMARK  210  A    between atoms: _483  and  _486
REMARK  211  A    between atoms: _486  and  _487
REMARK  212  A    between atoms: _492  and  _494
REMARK  213  A    between atoms: _494  and  _495
REMARK  214  A    between atoms: _494  and  _497
REMARK  215  A    between atoms: _497  and  _498
REMARK  216  A    between atoms: _504  and  _506
REMARK  217  A    between atoms: _506  and  _507
REMARK  218  A    between atoms: _506  and  _509
REMARK  219  A    between atoms: _509  and  _510
REMARK  220  A    between atoms: _514  and  _515
REMARK                            x       y       z     vdW  Elec       q    Type
REMARK                         _______ _______ _______ _____ _____    ______ ____
ROOT
ATOM      1  O   HOH     1      10.548  41.147 -45.590  0.00  0.00    +0.000 OA
ENDROOT
TORSDOF 0
REMARK  Name = ../refined-set-2016/4ynb/4ynb_pocket.pdb
REMARK  220 active torsions:
REMARK  status: ('A' for Active; 'I' for Inactive)
REMARK    1  A    between atoms: _1  and  _3
REMARK    2  A    between atoms: _3  and  _4
REMARK    3  A    between atoms: _6  and  _8
REMARK    4  A    between atoms: _8  and  _9
REMARK    5  A    between atoms: _12  and  _14
REMARK    6  A    between atoms: _14  and  _15
REMARK    7  A    between atoms: _14  and  _17
REMARK    8  A    between atoms: _17  and  _18
REMARK    9  A    between atoms: _18  and  _19
REMARK   10  A    between atoms: _21  and  _23
REMARK   11  A    between atoms: _23  and  _24
REMARK   12  A    between atoms: _23  and  _26
REMARK   13  A    between atoms: _26  and  _27
REMARK   14  A    between atoms: _27  and  _28
REMARK   15  A    between atoms: _31  and  _33
REMARK   16  A    between atoms: _33  and  _34
REMARK   17  A    between atoms: _33  and  _36
REMARK   18  A    between atoms: _36  and  _37
REMARK   19  A    between atoms: _37  and  _38
REMARK   20  A    between atoms: _41  and  _43
REMARK   21  A    between atoms: _43  and  _44
REMARK   22  A    between atoms: _43  and  _46
REMARK   23  A    between atoms: _46  and  _47
REMARK   24  A    between atoms: _49  and  _51
REMARK   25  A    between atoms: _51  and  _52
REMARK   26  A    between atoms: _51  and  _54
REMARK   27  A    between atoms: _54  and  _55
REMARK   28  A    between atoms: _55  and  _56
REMARK   29  A    between atoms: _56  and  _57
REMARK   30  A    between atoms: _57  and  _58
REMARK   31  A    between atoms: _62  and  _64
REMARK   32  A    between atoms: _64  and  _65
REMARK   33  A    between atoms: _64  and  _67
REMARK   34  A    between atoms: _67  and  _68
REMARK   35  A    between atoms: _71  and  _73
REMARK   36  A    between atoms: _73  and  _74
REMARK   37  A    between atoms: _76  and  _78
REMARK   38  A    between atoms: _78  and  _79
REMARK   39  A    between atoms: _78  and  _81
REMARK   40  A    between atoms: _81  and  _82
REMARK   41  A    between atoms: _88  and  _90
REMARK   42  A    between atoms: _90  and  _91
REMARK   43  A    between atoms: _93  and  _95
REMARK   44  A    between atoms: _95  and  _96
REMARK   45  A    between atoms: _95  and  _98
REMARK   46  A    between atoms: _101  and  _103
REMARK   47  A    between atoms: _103  and  _104
REMARK   48  A    between atoms: _107  and  _109
REMARK   49  A    between atoms: _109  and  _110
REMARK   50  A    between atoms: _112  and  _114
REMARK   51  A    between atoms: _114  and  _115
REMARK   52  A    between atoms: _114  and  _117
REMARK   53  A    between atoms: _117  and  _118
REMARK   54  A    between atoms: _120  and  _122
REMARK   55  A    between atoms: _122  and  _123
REMARK   56  A    between atoms: _122  and  _125
REMARK   57  A    between atoms: _125  and  _126
REMARK   58  A    between atoms: _129  and  _131
REMARK   59  A    between atoms: _131  and  _132
REMARK   60  A    between atoms: _131  and  _134
REMARK   61  A    between atoms: _134  and  _135
REMARK   62  A    between atoms: _140  and  _142
REMARK   63  A    between atoms: _142  and  _143
REMARK   64  A    between atoms: _146  and  _148
REMARK   65  A    between atoms: _148  and  _149
REMARK   66  A    between atoms: _148  and  _151
REMARK   67  A    between atoms: _151  and  _152
REMARK   68  A    between atoms: _154  and  _156
REMARK   69  A    between atoms: _156  and  _157
REMARK   70  A    between atoms: _159  and  _161
REMARK   71  A    between atoms: _161  and  _162
REMARK   72  A    between atoms: _161  and  _164
REMARK   73  A    between atoms: _164  and  _165
REMARK   74  A    between atoms: _168  and  _170
REMARK   75  A    between atoms: _170  and  _171
REMARK   76  A    between atoms: _170  and  _173
REMARK   77  A    between atoms: _173  and  _174
REMARK   78  A    between atoms: _174  and  _175
REMARK   79  A    between atoms: _180  and  _182
REMARK   80  A    between atoms: _182  and  _183
REMARK   81  A    between atoms: _182  and  _185
REMARK   82  A    between atoms: _185  and  _186
REMARK   83  A    between atoms: _192  and  _194
REMARK   84  A    between atoms: _194  and  _195
REMARK   85  A    between atoms: _194  and  _197
REMARK   86  A    between atoms: _200  and  _202
REMARK   87  A    between atoms: _202  and  _203
REMARK   88  A    between atoms: _202  and  _205
REMARK   89  A    between atoms: _205  and  _206
REMARK   90  A    between atoms: _211  and  _213
REMARK   91  A    between atoms: _213  and  _214
REMARK   92  A    between atoms: _213  and  _216
REMARK   93  A    between atoms: _216  and  _217
REMARK   94  A    between atoms: _219  and  _221
REMARK   95  A    between atoms: _221  and  _222
REMARK   96  A    between atoms: _221  and  _224
REMARK   97  A    between atoms: _224  and  _225
REMARK   98  A    between atoms: _225  and  _226
REMARK   99  A    between atoms: _226  and  _227
REMARK  100  A    between atoms: _227  and  _228
REMARK  101  A    between atoms: _232  and  _234
REMARK  102  A    between atoms: _234  and  _235
REMARK  103  A    between atoms: _234  and  _237
REMARK  104  A    between atoms: _237  and  _238
REMARK  105  A    between atoms: _241  and  _243
REMARK  106  A    between atoms: _243  and  _244
REMARK  107  A    between atoms: _247  and  _249
REMARK  108  A    between atoms: _249  and  _250
REMARK  109  A    between atoms: _249  and  _252
REMARK  110  A    between atoms: _255  and  _257
REMARK  111  A    between atoms: _257  and  _258
REMARK  112  A    between atoms: _257  and  _260
REMARK  113  A    between atoms: _260  and  _261
REMARK  114  A    between atoms: _261  and  _262
REMARK  115  A    between atoms: _265  and  _267
REMARK  116  A    between atoms: _267  and  _268
REMARK  117  A    between atoms: _267  and  _270
REMARK  118  A    between atoms: _270  and  _271
REMARK  119  A    between atoms: _271  and  _272
REMARK  120  A    between atoms: _274  and  _276
REMARK  121  A    between atoms: _276  and  _277
REMARK  122  A    between atoms: _276  and  _279
REMARK  123  A    between atoms: _279  and  _280
REMARK  124  A    between atoms: _280  and  _281
REMARK  125  A    between atoms: _284  and  _286
REMARK  126  A    between atoms: _286  and  _287
REMARK  127  A    between atoms: _289  and  _291
REMARK  128  A    between atoms: _291  and  _292
REMARK  129  A    between atoms: _291  and  _294
REMARK  130  A    between atoms: _294  and  _295
REMARK  131  A    between atoms: _295  and  _296
REMARK  132  A    between atoms: _296  and  _297
REMARK  133  A    between atoms: _306  and  _308
REMARK  134  A    between atoms: _308  and  _309
REMARK  135  A    between atoms: _308  and  _311
REMARK  136  A    between atoms: _311  and  _312
REMARK  137  A    between atoms: _314  and  _316
REMARK  138  A    between atoms: _316  and  _317
REMARK  139  A    between atoms: _316  and  _319
REMARK  140  A    between atoms: _319  and  _320
REMARK  141  A    between atoms: _323  and  _325
REMARK  142  A    between atoms: _325  and  _326
REMARK  143  A    between atoms: _325  and  _328
REMARK  144  A    between atoms: _328  and  _329
REMARK  145  A    between atoms: _331  and  _333
REMARK  146  A    between atoms: _333  and  _334
REMARK  147  A    between atoms: _333  and  _336
REMARK  148  A    between atoms: _336  and  _337
REMARK  149  A    between atoms: _340  and  _342
REMARK  150  A    between atoms: _342  and  _343
REMARK  151  A    between atoms: _342  and  _345
REMARK  152  A    between atoms: _345  and  _346
REMARK  153  A    between atoms: _351  and  _353
REMARK  154  A    between atoms: _353  and  _354
REMARK  155  A    between atoms: _357  and  _359
REMARK  156  A    between atoms: _359  and  _360
REMARK  157  A    between atoms: _359  and  _362
REMARK  158  A    between atoms: _362  and  _363
REMARK  159  A    between atoms: _366  and  _368
REMARK  160  A    between atoms: _368  and  _369
REMARK  161  A    between atoms: _368  and  _371
REMARK  162  A    between atoms: _371  and  _372
REMARK  163  A    between atoms: _372  and  _373
REMARK  164  A    between atoms: _373  and  _374
REMARK  165  A    between atoms: _374  and  _375
REMARK  166  A    between atoms: _379  and  _381
REMARK  167  A    between atoms: _381  and  _382
REMARK  168  A    between atoms: _385  and  _387
REMARK  169  A    between atoms: _387  and  _388
REMARK  170  A    between atoms: _390  and  _392
REMARK  171  A    between atoms: _392  and  _393
REMARK  172  A    between atoms: _392  and  _395
REMARK  173  A    between atoms: _395  and  _396
REMARK  174  A    between atoms: _398  and  _400
REMARK  175  A    between atoms: _400  and  _401
REMARK  176  A    between atoms: _400  and  _403
REMARK  177  A    between atoms: _403  and  _404
REMARK  178  A    between atoms: _410  and  _412
REMARK  179  A    between atoms: _412  and  _413
REMARK  180  A    between atoms: _412  and  _415
REMARK  181  A    between atoms: _415  and  _416
REMARK  182  A    between atoms: _419  and  _421
REMARK  183  A    between atoms: _421  and  _422
REMARK  184  A    between atoms: _421  and  _424
REMARK  185  A    between atoms: _424  and  _425
REMARK  186  A    between atoms: _428  and  _430
REMARK  187  A    between atoms: _430  and  _431
REMARK  188  A    between atoms: _430  and  _433
REMARK  189  A    between atoms: _433  and  _434
REMARK  190  A    between atoms: _437  and  _439
REMARK  191  A    between atoms: _439  and  _440
REMARK  192  A    between atoms: _439  and  _442
REMARK  193  A    between atoms: _442  and  _443
REMARK  194  A    between atoms: _446  and  _448
REMARK  195  A    between atoms: _448  and  _449
REMARK  196  A    between atoms: _448  and  _451
REMARK  197  A    between atoms: _451  and  _452
REMARK  198  A    between atoms: _454  and  _456
REMARK  199  A    between atoms: _456  and  _457
REMARK  200  A    between atoms: _460  and  _462
REMARK  201  A    between atoms: _462  and  _463
REMARK  202  A    between atoms: _462  and  _465
REMARK  203  A    between atoms: _465  and  _466
REMARK  204  A    between atoms: _472  and  _474
REMARK  205  A    between atoms: _474  and  _475
REMARK  206  A    between atoms: _474  and  _477
REMARK  207  A    between atoms: _477  and  _478
REMARK  208  A    between atoms: _481  and  _483
REMARK  209  A    between atoms: _483  and  _484
REMARK  210  A    between atoms: _483  and  _486
REMARK  211  A    between atoms: _486  and  _487
REMARK  212  A    between atoms: _492  and  _494
REMARK  213  A    between atoms: _494  and  _495
REMARK  214  A    between atoms: _494  and  _497
REMARK  215  A    between atoms: _497  and  _498
REMARK  216  A    between atoms: _504  and  _506
REMARK  217  A    between atoms: _506  and  _507
REMARK  218  A    between atoms: _506  and  _509
REMARK  219  A    between atoms: _509  and  _510
REMARK  220  A    between atoms: _514  and  _515
REMARK                            x       y       z     vdW  Elec       q    Type
REMARK                         _______ _______ _______ _____ _____    ______ ____
ROOT
ATOM      1  O   HOH     1      17.696  38.719 -45.993  0.00  0.00    +0.000 OA
ENDROOT
TORSDOF 0
REMARK  Name = ../refined-set-2016/4ynb/4ynb_pocket.pdb
REMARK  220 active torsions:
REMARK  status: ('A' for Active; 'I' for Inactive)
REMARK    1  A    between atoms: _1  and  _3
REMARK    2  A    between atoms: _3  and  _4
REMARK    3  A    between atoms: _6  and  _8
REMARK    4  A    between atoms: _8  and  _9
REMARK    5  A    between atoms: _12  and  _14
REMARK    6  A    between atoms: _14  and  _15
REMARK    7  A    between atoms: _14  and  _17
REMARK    8  A    between atoms: _17  and  _18
REMARK    9  A    between atoms: _18  and  _19
REMARK   10  A    between atoms: _21  and  _23
REMARK   11  A    between atoms: _23  and  _24
REMARK   12  A    between atoms: _23  and  _26
REMARK   13  A    between atoms: _26  and  _27
REMARK   14  A    between atoms: _27  and  _28
REMARK   15  A    between atoms: _31  and  _33
REMARK   16  A    between atoms: _33  and  _34
REMARK   17  A    between atoms: _33  and  _36
REMARK   18  A    between atoms: _36  and  _37
REMARK   19  A    between atoms: _37  and  _38
REMARK   20  A    between atoms: _41  and  _43
REMARK   21  A    between atoms: _43  and  _44
REMARK   22  A    between atoms: _43  and  _46
REMARK   23  A    between atoms: _46  and  _47
REMARK   24  A    between atoms: _49  and  _51
REMARK   25  A    between atoms: _51  and  _52
REMARK   26  A    between atoms: _51  and  _54
REMARK   27  A    between atoms: _54  and  _55
REMARK   28  A    between atoms: _55  and  _56
REMARK   29  A    between atoms: _56  and  _57
REMARK   30  A    between atoms: _57  and  _58
REMARK   31  A    between atoms: _62  and  _64
REMARK   32  A    between atoms: _64  and  _65
REMARK   33  A    between atoms: _64  and  _67
REMARK   34  A    between atoms: _67  and  _68
REMARK   35  A    between atoms: _71  and  _73
REMARK   36  A    between atoms: _73  and  _74
REMARK   37  A    between atoms: _76  and  _78
REMARK   38  A    between atoms: _78  and  _79
REMARK   39  A    between atoms: _78  and  _81
REMARK   40  A    between atoms: _81  and  _82
REMARK   41  A    between atoms: _88  and  _90
REMARK   42  A    between atoms: _90  and  _91
REMARK   43  A    between atoms: _93  and  _95
REMARK   44  A    between atoms: _95  and  _96
REMARK   45  A    between atoms: _95  and  _98
REMARK   46  A    between atoms: _101  and  _103
REMARK   47  A    between atoms: _103  and  _104
REMARK   48  A    between atoms: _107  and  _109
REMARK   49  A    between atoms: _109  and  _110
REMARK   50  A    between atoms: _112  and  _114
REMARK   51  A    between atoms: _114  and  _115
REMARK   52  A    between atoms: _114  and  _117
REMARK   53  A    between atoms: _117  and  _118
REMARK   54  A    between atoms: _120  and  _122
REMARK   55  A    between atoms: _122  and  _123
REMARK   56  A    between atoms: _122  and  _125
REMARK   57  A    between atoms: _125  and  _126
REMARK   58  A    between atoms: _129  and  _131
REMARK   59  A    between atoms: _131  and  _132
REMARK   60  A    between atoms: _131  and  _134
REMARK   61  A    between atoms: _134  and  _135
REMARK   62  A    between atoms: _140  and  _142
REMARK   63  A    between atoms: _142  and  _143
REMARK   64  A    between atoms: _146  and  _148
REMARK   65  A    between atoms: _148  and  _149
REMARK   66  A    between atoms: _148  and  _151
REMARK   67  A    between atoms: _151  and  _152
REMARK   68  A    between atoms: _154  and  _156
REMARK   69  A    between atoms: _156  and  _157
REMARK   70  A    between atoms: _159  and  _161
REMARK   71  A    between atoms: _161  and  _162
REMARK   72  A    between atoms: _161  and  _164
REMARK   73  A    between atoms: _164  and  _165
REMARK   74  A    between atoms: _168  and  _170
REMARK   75  A    between atoms: _170  and  _171
REMARK   76  A    between atoms: _170  and  _173
REMARK   77  A    between atoms: _173  and  _174
REMARK   78  A    between atoms: _174  and  _175
REMARK   79  A    between atoms: _180  and  _182
REMARK   80  A    between atoms: _182  and  _183
REMARK   81  A    between atoms: _182  and  _185
REMARK   82  A    between atoms: _185  and  _186
REMARK   83  A    between atoms: _192  and  _194
REMARK   84  A    between atoms: _194  and  _195
REMARK   85  A    between atoms: _194  and  _197
REMARK   86  A    between atoms: _200  and  _202
REMARK   87  A    between atoms: _202  and  _203
REMARK   88  A    between atoms: _202  and  _205
REMARK   89  A    between atoms: _205  and  _206
REMARK   90  A    between atoms: _211  and  _213
REMARK   91  A    between atoms: _213  and  _214
REMARK   92  A    between atoms: _213  and  _216
REMARK   93  A    between atoms: _216  and  _217
REMARK   94  A    between atoms: _219  and  _221
REMARK   95  A    between atoms: _221  and  _222
REMARK   96  A    between atoms: _221  and  _224
REMARK   97  A    between atoms: _224  and  _225
REMARK   98  A    between atoms: _225  and  _226
REMARK   99  A    between atoms: _226  and  _227
REMARK  100  A    between atoms: _227  and  _228
REMARK  101  A    between atoms: _232  and  _234
REMARK  102  A    between atoms: _234  and  _235
REMARK  103  A    between atoms: _234  and  _237
REMARK  104  A    between atoms: _237  and  _238
REMARK  105  A    between atoms: _241  and  _243
REMARK  106  A    between atoms: _243  and  _244
REMARK  107  A    between atoms: _247  and  _249
REMARK  108  A    between atoms: _249  and  _250
REMARK  109  A    between atoms: _249  and  _252
REMARK  110  A    between atoms: _255  and  _257
REMARK  111  A    between atoms: _257  and  _258
REMARK  112  A    between atoms: _257  and  _260
REMARK  113  A    between atoms: _260  and  _261
REMARK  114  A    between atoms: _261  and  _262
REMARK  115  A    between atoms: _265  and  _267
REMARK  116  A    between atoms: _267  and  _268
REMARK  117  A    between atoms: _267  and  _270
REMARK  118  A    between atoms: _270  and  _271
REMARK  119  A    between atoms: _271  and  _272
REMARK  120  A    between atoms: _274  and  _276
REMARK  121  A    between atoms: _276  and  _277
REMARK  122  A    between atoms: _276  and  _279
REMARK  123  A    between atoms: _279  and  _280
REMARK  124  A    between atoms: _280  and  _281
REMARK  125  A    between atoms: _284  and  _286
REMARK  126  A    between atoms: _286  and  _287
REMARK  127  A    between atoms: _289  and  _291
REMARK  128  A    between atoms: _291  and  _292
REMARK  129  A    between atoms: _291  and  _294
REMARK  130  A    between atoms: _294  and  _295
REMARK  131  A    between atoms: _295  and  _296
REMARK  132  A    between atoms: _296  and  _297
REMARK  133  A    between atoms: _306  and  _308
REMARK  134  A    between atoms: _308  and  _309
REMARK  135  A    between atoms: _308  and  _311
REMARK  136  A    between atoms: _311  and  _312
REMARK  137  A    between atoms: _314  and  _316
REMARK  138  A    between atoms: _316  and  _317
REMARK  139  A    between atoms: _316  and  _319
REMARK  140  A    between atoms: _319  and  _320
REMARK  141  A    between atoms: _323  and  _325
REMARK  142  A    between atoms: _325  and  _326
REMARK  143  A    between atoms: _325  and  _328
REMARK  144  A    between atoms: _328  and  _329
REMARK  145  A    between atoms: _331  and  _333
REMARK  146  A    between atoms: _333  and  _334
REMARK  147  A    between atoms: _333  and  _336
REMARK  148  A    between atoms: _336  and  _337
REMARK  149  A    between atoms: _340  and  _342
REMARK  150  A    between atoms: _342  and  _343
REMARK  151  A    between atoms: _342  and  _345
REMARK  152  A    between atoms: _345  and  _346
REMARK  153  A    between atoms: _351  and  _353
REMARK  154  A    between atoms: _353  and  _354
REMARK  155  A    between atoms: _357  and  _359
REMARK  156  A    between atoms: _359  and  _360
REMARK  157  A    between atoms: _359  and  _362
REMARK  158  A    between atoms: _362  and  _363
REMARK  159  A    between atoms: _366  and  _368
REMARK  160  A    between atoms: _368  and  _369
REMARK  161  A    between atoms: _368  and  _371
REMARK  162  A    between atoms: _371  and  _372
REMARK  163  A    between atoms: _372  and  _373
REMARK  164  A    between atoms: _373  and  _374
REMARK  165  A    between atoms: _374  and  _375
REMARK  166  A    between atoms: _379  and  _381
REMARK  167  A    between atoms: _381  and  _382
REMARK  168  A    between atoms: _385  and  _387
REMARK  169  A    between atoms: _387  and  _388
REMARK  170  A    between atoms: _390  and  _392
REMARK  171  A    between atoms: _392  and  _393
REMARK  172  A    between atoms: _392  and  _395
REMARK  173  A    between atoms: _395  and  _396
REMARK  174  A    between atoms: _398  and  _400
REMARK  175  A    between atoms: _400  and  _401
REMARK  176  A    between atoms: _400  and  _403
REMARK  177  A    between atoms: _403  and  _404
REMARK  178  A    between atoms: _410  and  _412
REMARK  179  A    between atoms: _412  and  _413
REMARK  180  A    between atoms: _412  and  _415
REMARK  181  A    between atoms: _415  and  _416
REMARK  182  A    between atoms: _419  and  _421
REMARK  183  A    between atoms: _421  and  _422
REMARK  184  A    between atoms: _421  and  _424
REMARK  185  A    between atoms: _424  and  _425
REMARK  186  A    between atoms: _428  and  _430
REMARK  187  A    between atoms: _430  and  _431
REMARK  188  A    between atoms: _430  and  _433
REMARK  189  A    between atoms: _433  and  _434
REMARK  190  A    between atoms: _437  and  _439
REMARK  191  A    between atoms: _439  and  _440
REMARK  192  A    between atoms: _439  and  _442
REMARK  193  A    between atoms: _442  and  _443
REMARK  194  A    between atoms: _446  and  _448
REMARK  195  A    between atoms: _448  and  _449
REMARK  196  A    between atoms: _448  and  _451
REMARK  197  A    between atoms: _451  and  _452
REMARK  198  A    between atoms: _454  and  _456
REMARK  199  A    between atoms: _456  and  _457
REMARK  200  A    between atoms: _460  and  _462
REMARK  201  A    between atoms: _462  and  _463
REMARK  202  A    between atoms: _462  and  _465
REMARK  203  A    between atoms: _465  and  _466
REMARK  204  A    between atoms: _472  and  _474
REMARK  205  A    between atoms: _474  and  _475
REMARK  206  A    between atoms: _474  and  _477
REMARK  207  A    between atoms: _477  and  _478
REMARK  208  A    between atoms: _481  and  _483
REMARK  209  A    between atoms: _483  and  _484
REMARK  210  A    between atoms: _483  and  _486
REMARK  211  A    between atoms: _486  and  _487
REMARK  212  A    between atoms: _492  and  _494
REMARK  213  A    between atoms: _494  and  _495
REMARK  214  A    between atoms: _494  and  _497
REMARK  215  A    between atoms: _497  and  _498
REMARK  216  A    between atoms: _504  and  _506
REMARK  217  A    between atoms: _506  and  _507
REMARK  218  A    between atoms: _506  and  _509
REMARK  219  A    between atoms: _509  and  _510
REMARK  220  A    between atoms: _514  and  _515
REMARK                            x       y       z     vdW  Elec       q    Type
REMARK                         _______ _______ _______ _____ _____    ______ ____
ROOT
ATOM      1  O   HOH     1      18.326  37.836 -41.465  0.00  0.00    +0.000 OA
ENDROOT
TORSDOF 0
REMARK  Name = ../refined-set-2016/4ynb/4ynb_pocket.pdb
REMARK  220 active torsions:
REMARK  status: ('A' for Active; 'I' for Inactive)
REMARK    1  A    between atoms: _1  and  _3
REMARK    2  A    between atoms: _3  and  _4
REMARK    3  A    between atoms: _6  and  _8
REMARK    4  A    between atoms: _8  and  _9
REMARK    5  A    between atoms: _12  and  _14
REMARK    6  A    between atoms: _14  and  _15
REMARK    7  A    between atoms: _14  and  _17
REMARK    8  A    between atoms: _17  and  _18
REMARK    9  A    between atoms: _18  and  _19
REMARK   10  A    between atoms: _21  and  _23
REMARK   11  A    between atoms: _23  and  _24
REMARK   12  A    between atoms: _23  and  _26
REMARK   13  A    between atoms: _26  and  _27
REMARK   14  A    between atoms: _27  and  _28
REMARK   15  A    between atoms: _31  and  _33
REMARK   16  A    between atoms: _33  and  _34
REMARK   17  A    between atoms: _33  and  _36
REMARK   18  A    between atoms: _36  and  _37
REMARK   19  A    between atoms: _37  and  _38
REMARK   20  A    between atoms: _41  and  _43
REMARK   21  A    between atoms: _43  and  _44
REMARK   22  A    between atoms: _43  and  _46
REMARK   23  A    between atoms: _46  and  _47
REMARK   24  A    between atoms: _49  and  _51
REMARK   25  A    between atoms: _51  and  _52
REMARK   26  A    between atoms: _51  and  _54
REMARK   27  A    between atoms: _54  and  _55
REMARK   28  A    between atoms: _55  and  _56
REMARK   29  A    between atoms: _56  and  _57
REMARK   30  A    between atoms: _57  and  _58
REMARK   31  A    between atoms: _62  and  _64
REMARK   32  A    between atoms: _64  and  _65
REMARK   33  A    between atoms: _64  and  _67
REMARK   34  A    between atoms: _67  and  _68
REMARK   35  A    between atoms: _71  and  _73
REMARK   36  A    between atoms: _73  and  _74
REMARK   37  A    between atoms: _76  and  _78
REMARK   38  A    between atoms: _78  and  _79
REMARK   39  A    between atoms: _78  and  _81
REMARK   40  A    between atoms: _81  and  _82
REMARK   41  A    between atoms: _88  and  _90
REMARK   42  A    between atoms: _90  and  _91
REMARK   43  A    between atoms: _93  and  _95
REMARK   44  A    between atoms: _95  and  _96
REMARK   45  A    between atoms: _95  and  _98
REMARK   46  A    between atoms: _101  and  _103
REMARK   47  A    between atoms: _103  and  _104
REMARK   48  A    between atoms: _107  and  _109
REMARK   49  A    between atoms: _109  and  _110
REMARK   50  A    between atoms: _112  and  _114
REMARK   51  A    between atoms: _114  and  _115
REMARK   52  A    between atoms: _114  and  _117
REMARK   53  A    between atoms: _117  and  _118
REMARK   54  A    between atoms: _120  and  _122
REMARK   55  A    between atoms: _122  and  _123
REMARK   56  A    between atoms: _122  and  _125
REMARK   57  A    between atoms: _125  and  _126
REMARK   58  A    between atoms: _129  and  _131
REMARK   59  A    between atoms: _131  and  _132
REMARK   60  A    between atoms: _131  and  _134
REMARK   61  A    between atoms: _134  and  _135
REMARK   62  A    between atoms: _140  and  _142
REMARK   63  A    between atoms: _142  and  _143
REMARK   64  A    between atoms: _146  and  _148
REMARK   65  A    between atoms: _148  and  _149
REMARK   66  A    between atoms: _148  and  _151
REMARK   67  A    between atoms: _151  and  _152
REMARK   68  A    between atoms: _154  and  _156
REMARK   69  A    between atoms: _156  and  _157
REMARK   70  A    between atoms: _159  and  _161
REMARK   71  A    between atoms: _161  and  _162
REMARK   72  A    between atoms: _161  and  _164
REMARK   73  A    between atoms: _164  and  _165
REMARK   74  A    between atoms: _168  and  _170
REMARK   75  A    between atoms: _170  and  _171
REMARK   76  A    between atoms: _170  and  _173
REMARK   77  A    between atoms: _173  and  _174
REMARK   78  A    between atoms: _174  and  _175
REMARK   79  A    between atoms: _180  and  _182
REMARK   80  A    between atoms: _182  and  _183
REMARK   81  A    between atoms: _182  and  _185
REMARK   82  A    between atoms: _185  and  _186
REMARK   83  A    between atoms: _192  and  _194
REMARK   84  A    between atoms: _194  and  _195
REMARK   85  A    between atoms: _194  and  _197
REMARK   86  A    between atoms: _200  and  _202
REMARK   87  A    between atoms: _202  and  _203
REMARK   88  A    between atoms: _202  and  _205
REMARK   89  A    between atoms: _205  and  _206
REMARK   90  A    between atoms: _211  and  _213
REMARK   91  A    between atoms: _213  and  _214
REMARK   92  A    between atoms: _213  and  _216
REMARK   93  A    between atoms: _216  and  _217
REMARK   94  A    between atoms: _219  and  _221
REMARK   95  A    between atoms: _221  and  _222
REMARK   96  A    between atoms: _221  and  _224
REMARK   97  A    between atoms: _224  and  _225
REMARK   98  A    between atoms: _225  and  _226
REMARK   99  A    between atoms: _226  and  _227
REMARK  100  A    between atoms: _227  and  _228
REMARK  101  A    between atoms: _232  and  _234
REMARK  102  A    between atoms: _234  and  _235
REMARK  103  A    between atoms: _234  and  _237
REMARK  104  A    between atoms: _237  and  _238
REMARK  105  A    between atoms: _241  and  _243
REMARK  106  A    between atoms: _243  and  _244
REMARK  107  A    between atoms: _247  and  _249
REMARK  108  A    between atoms: _249  and  _250
REMARK  109  A    between atoms: _249  and  _252
REMARK  110  A    between atoms: _255  and  _257
REMARK  111  A    between atoms: _257  and  _258
REMARK  112  A    between atoms: _257  and  _260
REMARK  113  A    between atoms: _260  and  _261
REMARK  114  A    between atoms: _261  and  _262
REMARK  115  A    between atoms: _265  and  _267
REMARK  116  A    between atoms: _267  and  _268
REMARK  117  A    between atoms: _267  and  _270
REMARK  118  A    between atoms: _270  and  _271
REMARK  119  A    between atoms: _271  and  _272
REMARK  120  A    between atoms: _274  and  _276
REMARK  121  A    between atoms: _276  and  _277
REMARK  122  A    between atoms: _276  and  _279
REMARK  123  A    between atoms: _279  and  _280
REMARK  124  A    between atoms: _280  and  _281
REMARK  125  A    between atoms: _284  and  _286
REMARK  126  A    between atoms: _286  and  _287
REMARK  127  A    between atoms: _289  and  _291
REMARK  128  A    between atoms: _291  and  _292
REMARK  129  A    between atoms: _291  and  _294
REMARK  130  A    between atoms: _294  and  _295
REMARK  131  A    between atoms: _295  and  _296
REMARK  132  A    between atoms: _296  and  _297
REMARK  133  A    between atoms: _306  and  _308
REMARK  134  A    between atoms: _308  and  _309
REMARK  135  A    between atoms: _308  and  _311
REMARK  136  A    between atoms: _311  and  _312
REMARK  137  A    between atoms: _314  and  _316
REMARK  138  A    between atoms: _316  and  _317
REMARK  139  A    between atoms: _316  and  _319
REMARK  140  A    between atoms: _319  and  _320
REMARK  141  A    between atoms: _323  and  _325
REMARK  142  A    between atoms: _325  and  _326
REMARK  143  A    between atoms: _325  and  _328
REMARK  144  A    between atoms: _328  and  _329
REMARK  145  A    between atoms: _331  and  _333
REMARK  146  A    between atoms: _333  and  _334
REMARK  147  A    between atoms: _333  and  _336
REMARK  148  A    between atoms: _336  and  _337
REMARK  149  A    between atoms: _340  and  _342
REMARK  150  A    between atoms: _342  and  _343
REMARK  151  A    between atoms: _342  and  _345
REMARK  152  A    between atoms: _345  and  _346
REMARK  153  A    between atoms: _351  and  _353
REMARK  154  A    between atoms: _353  and  _354
REMARK  155  A    between atoms: _357  and  _359
REMARK  156  A    between atoms: _359  and  _360
REMARK  157  A    between atoms: _359  and  _362
REMARK  158  A    between atoms: _362  and  _363
REMARK  159  A    between atoms: _366  and  _368
REMARK  160  A    between atoms: _368  and  _369
REMARK  161  A    between atoms: _368  and  _371
REMARK  162  A    between atoms: _371  and  _372
REMARK  163  A    between atoms: _372  and  _373
REMARK  164  A    between atoms: _373  and  _374
REMARK  165  A    between atoms: _374  and  _375
REMARK  166  A    between atoms: _379  and  _381
REMARK  167  A    between atoms: _381  and  _382
REMARK  168  A    between atoms: _385  and  _387
REMARK  169  A    between atoms: _387  and  _388
REMARK  170  A    between atoms: _390  and  _392
REMARK  171  A    between atoms: _392  and  _393
REMARK  172  A    between atoms: _392  and  _395
REMARK  173  A    between atoms: _395  and  _396
REMARK  174  A    between atoms: _398  and  _400
REMARK  175  A    between atoms: _400  and  _401
REMARK  176  A    between atoms: _400  and  _403
REMARK  177  A    between atoms: _403  and  _404
REMARK  178  A    between atoms: _410  and  _412
REMARK  179  A    between atoms: _412  and  _413
REMARK  180  A    between atoms: _412  and  _415
REMARK  181  A    between atoms: _415  and  _416
REMARK  182  A    between atoms: _419  and  _421
REMARK  183  A    between atoms: _421  and  _422
REMARK  184  A    between atoms: _421  and  _424
REMARK  185  A    between atoms: _424  and  _425
REMARK  186  A    between atoms: _428  and  _430
REMARK  187  A    between atoms: _430  and  _431
REMARK  188  A    between atoms: _430  and  _433
REMARK  189  A    between atoms: _433  and  _434
REMARK  190  A    between atoms: _437  and  _439
REMARK  191  A    between atoms: _439  and  _440
REMARK  192  A    between atoms: _439  and  _442
REMARK  193  A    between atoms: _442  and  _443
REMARK  194  A    between atoms: _446  and  _448
REMARK  195  A    between atoms: _448  and  _449
REMARK  196  A    between atoms: _448  and  _451
REMARK  197  A    between atoms: _451  and  _452
REMARK  198  A    between atoms: _454  and  _456
REMARK  199  A    between atoms: _456  and  _457
REMARK  200  A    between atoms: _460  and  _462
REMARK  201  A    between atoms: _462  and  _463
REMARK  202  A    between atoms: _462  and  _465
REMARK  203  A    between atoms: _465  and  _466
REMARK  204  A    between atoms: _472  and  _474
REMARK  205  A    between atoms: _474  and  _475
REMARK  206  A    between atoms: _474  and  _477
REMARK  207  A    between atoms: _477  and  _478
REMARK  208  A    between atoms: _481  and  _483
REMARK  209  A    between atoms: _483  and  _484
REMARK  210  A    between atoms: _483  and  _486
REMARK  211  A    between atoms: _486  and  _487
REMARK  212  A    between atoms: _492  and  _494
REMARK  213  A    between atoms: _494  and  _495
REMARK  214  A    between atoms: _494  and  _497
REMARK  215  A    between atoms: _497  and  _498
REMARK  216  A    between atoms: _504  and  _506
REMARK  217  A    between atoms: _506  and  _507
REMARK  218  A    between atoms: _506  and  _509
REMARK  219  A    between atoms: _509  and  _510
REMARK  220  A    between atoms: _514  and  _515
REMARK                            x       y       z     vdW  Elec       q    Type
REMARK                         _______ _______ _______ _____ _____    ______ ____
ROOT
ATOM      1  O   HOH     1      19.331  37.852 -43.956  0.00  0.00    +0.000 OA
ENDROOT
TORSDOF 0
