REMARK  Name = ../refined-set-2016/4y8x/4y8x_pocket.pdb
REMARK  247 active torsions:
REMARK  status: ('A' for Active; 'I' for Inactive)
REMARK    1  A    between atoms: _1  and  _5
REMARK    2  A    between atoms: _5  and  _6
REMARK    3  A    between atoms: _5  and  _8
REMARK    4  A    between atoms: _8  and  _9
REMARK    5  A    between atoms: _12  and  _14
REMARK    6  A    between atoms: _14  and  _15
REMARK    7  A    between atoms: _14  and  _17
REMARK    8  A    between atoms: _20  and  _22
REMARK    9  A    between atoms: _22  and  _23
REMARK   10  A    between atoms: _22  and  _25
REMARK   11  A    between atoms: _25  and  _26
REMARK   12  A    between atoms: _29  and  _31
REMARK   13  A    between atoms: _31  and  _32
REMARK   14  A    between atoms: _31  and  _34
REMARK   15  A    between atoms: _34  and  _35
REMARK   16  A    between atoms: _38  and  _40
REMARK   17  A    between atoms: _40  and  _41
REMARK   18  A    between atoms: _40  and  _43
REMARK   19  A    between atoms: _43  and  _44
REMARK   20  A    between atoms: _49  and  _51
REMARK   21  A    between atoms: _51  and  _52
REMARK   22  A    between atoms: _51  and  _54
REMARK   23  A    between atoms: _54  and  _55
REMARK   24  A    between atoms: _58  and  _60
REMARK   25  A    between atoms: _60  and  _61
REMARK   26  A    between atoms: _60  and  _63
REMARK   27  A    between atoms: _63  and  _64
REMARK   28  A    between atoms: _67  and  _69
REMARK   29  A    between atoms: _69  and  _70
REMARK   30  A    between atoms: _69  and  _72
REMARK   31  A    between atoms: _72  and  _73
REMARK   32  A    between atoms: _73  and  _74
REMARK   33  A    between atoms: _79  and  _81
REMARK   34  A    between atoms: _81  and  _82
REMARK   35  A    between atoms: _81  and  _84
REMARK   36  A    between atoms: _84  and  _85
REMARK   37  A    between atoms: _85  and  _86
REMARK   38  A    between atoms: _86  and  _87
REMARK   39  A    between atoms: _96  and  _98
REMARK   40  A    between atoms: _98  and  _99
REMARK   41  A    between atoms: _98  and  _101
REMARK   42  A    between atoms: _101  and  _102
REMARK   43  A    between atoms: _107  and  _109
REMARK   44  A    between atoms: _109  and  _110
REMARK   45  A    between atoms: _109  and  _112
REMARK   46  A    between atoms: _112  and  _113
REMARK   47  A    between atoms: _116  and  _118
REMARK   48  A    between atoms: _118  and  _119
REMARK   49  A    between atoms: _118  and  _121
REMARK   50  A    between atoms: _121  and  _122
REMARK   51  A    between atoms: _122  and  _157
REMARK   52  A    between atoms: _123  and  _125
REMARK   53  A    between atoms: _125  and  _126
REMARK   54  A    between atoms: _128  and  _130
REMARK   55  A    between atoms: _130  and  _131
REMARK   56  A    between atoms: _134  and  _136
REMARK   57  A    between atoms: _136  and  _137
REMARK   58  A    between atoms: _140  and  _142
REMARK   59  A    between atoms: _142  and  _143
REMARK   60  A    between atoms: _142  and  _145
REMARK   61  A    between atoms: _145  and  _146
REMARK   62  A    between atoms: _151  and  _153
REMARK   63  A    between atoms: _153  and  _154
REMARK   64  A    between atoms: _153  and  _156
REMARK   65  A    between atoms: _156  and  _157
REMARK   66  A    between atoms: _158  and  _160
REMARK   67  A    between atoms: _160  and  _161
REMARK   68  A    between atoms: _160  and  _163
REMARK   69  A    between atoms: _163  and  _164
REMARK   70  A    between atoms: _170  and  _172
REMARK   71  A    between atoms: _172  and  _173
REMARK   72  A    between atoms: _172  and  _175
REMARK   73  A    between atoms: _175  and  _176
REMARK   74  A    between atoms: _181  and  _182
REMARK   75  A    between atoms: _184  and  _186
REMARK   76  A    between atoms: _186  and  _187
REMARK   77  A    between atoms: _186  and  _189
REMARK   78  A    between atoms: _192  and  _194
REMARK   79  A    between atoms: _194  and  _195
REMARK   80  A    between atoms: _194  and  _197
REMARK   81  A    between atoms: _197  and  _198
REMARK   82  A    between atoms: _198  and  _199
REMARK   83  A    between atoms: _204  and  _206
REMARK   84  A    between atoms: _206  and  _207
REMARK   85  A    between atoms: _210  and  _212
REMARK   86  A    between atoms: _212  and  _213
REMARK   87  A    between atoms: _212  and  _215
REMARK   88  A    between atoms: _215  and  _216
REMARK   89  A    between atoms: _219  and  _221
REMARK   90  A    between atoms: _221  and  _222
REMARK   91  A    between atoms: _221  and  _224
REMARK   92  A    between atoms: _227  and  _229
REMARK   93  A    between atoms: _229  and  _230
REMARK   94  A    between atoms: _229  and  _232
REMARK   95  A    between atoms: _232  and  _233
REMARK   96  A    between atoms: _243  and  _245
REMARK   97  A    between atoms: _245  and  _246
REMARK   98  A    between atoms: _248  and  _250
REMARK   99  A    between atoms: _250  and  _251
REMARK  100  A    between atoms: _250  and  _253
REMARK  101  A    between atoms: _253  and  _254
REMARK  102  A    between atoms: _259  and  _260
REMARK  103  A    between atoms: _262  and  _264
REMARK  104  A    between atoms: _264  and  _265
REMARK  105  A    between atoms: _264  and  _267
REMARK  106  A    between atoms: _267  and  _268
REMARK  107  A    between atoms: _268  and  _269
REMARK  108  A    between atoms: _269  and  _270
REMARK  109  A    between atoms: _270  and  _271
REMARK  110  A    between atoms: _275  and  _277
REMARK  111  A    between atoms: _277  and  _278
REMARK  112  A    between atoms: _277  and  _280
REMARK  113  A    between atoms: _280  and  _281
REMARK  114  A    between atoms: _284  and  _286
REMARK  115  A    between atoms: _286  and  _287
REMARK  116  A    between atoms: _286  and  _289
REMARK  117  A    between atoms: _289  and  _290
REMARK  118  A    between atoms: _293  and  _295
REMARK  119  A    between atoms: _295  and  _296
REMARK  120  A    between atoms: _295  and  _298
REMARK  121  A    between atoms: _298  and  _299
REMARK  122  A    between atoms: _299  and  _300
REMARK  123  A    between atoms: _300  and  _301
REMARK  124  A    between atoms: _301  and  _302
REMARK  125  A    between atoms: _306  and  _308
REMARK  126  A    between atoms: _308  and  _309
REMARK  127  A    between atoms: _308  and  _311
REMARK  128  A    between atoms: _311  and  _312
REMARK  129  A    between atoms: _315  and  _317
REMARK  130  A    between atoms: _317  and  _318
REMARK  131  A    between atoms: _317  and  _320
REMARK  132  A    between atoms: _320  and  _321
REMARK  133  A    between atoms: _321  and  _322
REMARK  134  A    between atoms: _327  and  _329
REMARK  135  A    between atoms: _329  and  _330
REMARK  136  A    between atoms: _329  and  _332
REMARK  137  A    between atoms: _332  and  _333
REMARK  138  A    between atoms: _336  and  _338
REMARK  139  A    between atoms: _338  and  _339
REMARK  140  A    between atoms: _338  and  _341
REMARK  141  A    between atoms: _341  and  _342
REMARK  142  A    between atoms: _347  and  _348
REMARK  143  A    between atoms: _350  and  _352
REMARK  144  A    between atoms: _352  and  _353
REMARK  145  A    between atoms: _352  and  _355
REMARK  146  A    between atoms: _355  and  _356
REMARK  147  A    between atoms: _359  and  _361
REMARK  148  A    between atoms: _361  and  _362
REMARK  149  A    between atoms: _361  and  _364
REMARK  150  A    between atoms: _366  and  _368
REMARK  151  A    between atoms: _368  and  _369
REMARK  152  A    between atoms: _372  and  _374
REMARK  153  A    between atoms: _374  and  _375
REMARK  154  A    between atoms: _374  and  _377
REMARK  155  A    between atoms: _377  and  _378
REMARK  156  A    between atoms: _378  and  _379
REMARK  157  A    between atoms: _379  and  _380
REMARK  158  A    between atoms: _380  and  _381
REMARK  159  A    between atoms: _385  and  _387
REMARK  160  A    between atoms: _387  and  _388
REMARK  161  A    between atoms: _387  and  _390
REMARK  162  A    between atoms: _390  and  _391
REMARK  163  A    between atoms: _394  and  _396
REMARK  164  A    between atoms: _396  and  _397
REMARK  165  A    between atoms: _400  and  _402
REMARK  166  A    between atoms: _402  and  _403
REMARK  167  A    between atoms: _402  and  _405
REMARK  168  A    between atoms: _405  and  _406
REMARK  169  A    between atoms: _406  and  _520
REMARK  170  A    between atoms: _407  and  _409
REMARK  171  A    between atoms: _409  and  _410
REMARK  172  A    between atoms: _409  and  _412
REMARK  173  A    between atoms: _412  and  _413
REMARK  174  A    between atoms: _413  and  _414
REMARK  175  A    between atoms: _414  and  _415
REMARK  176  A    between atoms: _415  and  _416
REMARK  177  A    between atoms: _420  and  _422
REMARK  178  A    between atoms: _422  and  _423
REMARK  179  A    between atoms: _425  and  _427
REMARK  180  A    between atoms: _427  and  _428
REMARK  181  A    between atoms: _427  and  _430
REMARK  182  A    between atoms: _430  and  _431
REMARK  183  A    between atoms: _434  and  _436
REMARK  184  A    between atoms: _436  and  _437
REMARK  185  A    between atoms: _436  and  _439
REMARK  186  A    between atoms: _439  and  _440
REMARK  187  A    between atoms: _442  and  _444
REMARK  188  A    between atoms: _444  and  _445
REMARK  189  A    between atoms: _447  and  _449
REMARK  190  A    between atoms: _449  and  _450
REMARK  191  A    between atoms: _452  and  _454
REMARK  192  A    between atoms: _454  and  _455
REMARK  193  A    between atoms: _454  and  _457
REMARK  194  A    between atoms: _457  and  _458
REMARK  195  A    between atoms: _461  and  _463
REMARK  196  A    between atoms: _463  and  _464
REMARK  197  A    between atoms: _463  and  _466
REMARK  198  A    between atoms: _466  and  _467
REMARK  199  A    between atoms: _470  and  _472
REMARK  200  A    between atoms: _472  and  _473
REMARK  201  A    between atoms: _472  and  _475
REMARK  202  A    between atoms: _475  and  _476
REMARK  203  A    between atoms: _478  and  _480
REMARK  204  A    between atoms: _480  and  _481
REMARK  205  A    between atoms: _480  and  _483
REMARK  206  A    between atoms: _483  and  _484
REMARK  207  A    between atoms: _494  and  _496
REMARK  208  A    between atoms: _496  and  _497
REMARK  209  A    between atoms: _499  and  _501
REMARK  210  A    between atoms: _501  and  _502
REMARK  211  A    between atoms: _501  and  _504
REMARK  212  A    between atoms: _504  and  _505
REMARK  213  A    between atoms: _505  and  _506
REMARK  214  A    between atoms: _509  and  _511
REMARK  215  A    between atoms: _511  and  _512
REMARK  216  A    between atoms: _514  and  _516
REMARK  217  A    between atoms: _516  and  _517
REMARK  218  A    between atoms: _516  and  _519
REMARK  219  A    between atoms: _519  and  _520
REMARK  220  A    between atoms: _521  and  _523
REMARK  221  A    between atoms: _523  and  _524
REMARK  222  A    between atoms: _527  and  _529
REMARK  223  A    between atoms: _529  and  _530
REMARK  224  A    between atoms: _529  and  _532
REMARK  225  A    between atoms: _532  and  _533
REMARK  226  A    between atoms: _533  and  _534
REMARK  227  A    between atoms: _539  and  _541
REMARK  228  A    between atoms: _541  and  _542
REMARK  229  A    between atoms: _541  and  _544
REMARK  230  A    between atoms: _544  and  _545
REMARK  231  A    between atoms: _545  and  _546
REMARK  232  A    between atoms: _546  and  _547
REMARK  233  A    between atoms: _557  and  _558
REMARK  234  A    between atoms: _563  and  _565
REMARK  235  A    between atoms: _565  and  _566
REMARK  236  A    between atoms: _568  and  _570
REMARK  237  A    between atoms: _570  and  _571
REMARK  238  A    between atoms: _570  and  _573
REMARK  239  A    between atoms: _576  and  _578
REMARK  240  A    between atoms: _578  and  _579
REMARK  241  A    between atoms: _578  and  _581
REMARK  242  A    between atoms: _581  and  _582
REMARK  243  A    between atoms: _587  and  _588
REMARK  244  A    between atoms: _590  and  _592
REMARK  245  A    between atoms: _592  and  _593
REMARK  246  A    between atoms: _592  and  _595
REMARK  247  A    between atoms: _595  and  _596
REMARK                            x       y       z     vdW  Elec       q    Type
REMARK                         _______ _______ _______ _____ _____    ______ ____
ROOT
ATOM      1  C   ILE A   1      42.055  -9.343  33.473  0.00  0.00    +0.202 C 
ATOM      2  O   ILE A   1      43.186  -9.047  33.862  0.00  0.00    -0.277 OA
ATOM      3  N   VAL A   2      41.410  -8.676  32.515  0.00  0.00    -0.301 N 
ATOM      4  H   VAL A   2      40.460  -8.994  32.234  0.00  0.00    +0.150 HD
ENDROOT
BRANCH   1   5
ATOM      5  CA  ILE A   1      41.320 -10.506  34.127  0.00  0.00    +0.013 C 
BRANCH   5   6
ATOM      6  N   ILE A   1      42.221 -11.669  34.081  0.00  0.00    +0.387 N 
ATOM      7  H1  ILE A   1      43.095 -11.449  34.599  0.00  0.00    -0.089 HD
ATOM      8  H2  ILE A   1      41.752 -12.487  34.520  0.00  0.00    -0.089 HD
ATOM      9  H3  ILE A   1      42.450 -11.890  33.091  0.00  0.00    -0.089 HD
ENDBRANCH   5   6
BRANCH   5  10
ATOM     10  CB  ILE A   1      40.937 -10.135  35.605  0.00  0.00    -0.011 C 
ATOM     11  CG2 ILE A   1      40.098  -8.794  35.699  0.00  0.00    -0.002 C 
BRANCH  10  12
ATOM     12  CG1 ILE A   1      40.219 -11.310  36.359  0.00  0.00    -0.002 C 
ATOM     13  CD1 ILE A   1      38.774 -11.632  35.863  0.00  0.00    -0.000 C 
ENDBRANCH  10  12
ENDBRANCH   5  10
ENDBRANCH   1   5
BRANCH   3  14
ATOM     14  CA  VAL A   2      41.998  -7.503  31.841  0.00  0.00    +0.137 C 
BRANCH  14  15
ATOM     15  CB  VAL A   2      41.607  -7.466  30.335  0.00  0.00    +0.026 C 
ATOM     16  CG2 VAL A   2      41.979  -8.775  29.635  0.00  0.00    +0.002 C 
ATOM     17  CG1 VAL A   2      42.263  -6.268  29.622  0.00  0.00    +0.002 C 
ENDBRANCH  14  15
BRANCH  14  18
ATOM     18  C   VAL A   2      41.456  -6.263  32.557  0.00  0.00    +0.227 C 
ATOM     19  O   VAL A   2      40.270  -6.214  32.853  0.00  0.00    -0.286 OA
ENDBRANCH  14  18
ENDBRANCH   3  14
TORSDOF 7
REMARK  Name = ../refined-set-2016/4y8x/4y8x_pocket.pdb
REMARK  247 active torsions:
REMARK  status: ('A' for Active; 'I' for Inactive)
REMARK    1  A    between atoms: _1  and  _5
REMARK    2  A    between atoms: _5  and  _6
REMARK    3  A    between atoms: _5  and  _8
REMARK    4  A    between atoms: _8  and  _9
REMARK    5  A    between atoms: _12  and  _14
REMARK    6  A    between atoms: _14  and  _15
REMARK    7  A    between atoms: _14  and  _17
REMARK    8  A    between atoms: _20  and  _22
REMARK    9  A    between atoms: _22  and  _23
REMARK   10  A    between atoms: _22  and  _25
REMARK   11  A    between atoms: _25  and  _26
REMARK   12  A    between atoms: _29  and  _31
REMARK   13  A    between atoms: _31  and  _32
REMARK   14  A    between atoms: _31  and  _34
REMARK   15  A    between atoms: _34  and  _35
REMARK   16  A    between atoms: _38  and  _40
REMARK   17  A    between atoms: _40  and  _41
REMARK   18  A    between atoms: _40  and  _43
REMARK   19  A    between atoms: _43  and  _44
REMARK   20  A    between atoms: _49  and  _51
REMARK   21  A    between atoms: _51  and  _52
REMARK   22  A    between atoms: _51  and  _54
REMARK   23  A    between atoms: _54  and  _55
REMARK   24  A    between atoms: _58  and  _60
REMARK   25  A    between atoms: _60  and  _61
REMARK   26  A    between atoms: _60  and  _63
REMARK   27  A    between atoms: _63  and  _64
REMARK   28  A    between atoms: _67  and  _69
REMARK   29  A    between atoms: _69  and  _70
REMARK   30  A    between atoms: _69  and  _72
REMARK   31  A    between atoms: _72  and  _73
REMARK   32  A    between atoms: _73  and  _74
REMARK   33  A    between atoms: _79  and  _81
REMARK   34  A    between atoms: _81  and  _82
REMARK   35  A    between atoms: _81  and  _84
REMARK   36  A    between atoms: _84  and  _85
REMARK   37  A    between atoms: _85  and  _86
REMARK   38  A    between atoms: _86  and  _87
REMARK   39  A    between atoms: _96  and  _98
REMARK   40  A    between atoms: _98  and  _99
REMARK   41  A    between atoms: _98  and  _101
REMARK   42  A    between atoms: _101  and  _102
REMARK   43  A    between atoms: _107  and  _109
REMARK   44  A    between atoms: _109  and  _110
REMARK   45  A    between atoms: _109  and  _112
REMARK   46  A    between atoms: _112  and  _113
REMARK   47  A    between atoms: _116  and  _118
REMARK   48  A    between atoms: _118  and  _119
REMARK   49  A    between atoms: _118  and  _121
REMARK   50  A    between atoms: _121  and  _122
REMARK   51  A    between atoms: _122  and  _157
REMARK   52  A    between atoms: _123  and  _125
REMARK   53  A    between atoms: _125  and  _126
REMARK   54  A    between atoms: _128  and  _130
REMARK   55  A    between atoms: _130  and  _131
REMARK   56  A    between atoms: _134  and  _136
REMARK   57  A    between atoms: _136  and  _137
REMARK   58  A    between atoms: _140  and  _142
REMARK   59  A    between atoms: _142  and  _143
REMARK   60  A    between atoms: _142  and  _145
REMARK   61  A    between atoms: _145  and  _146
REMARK   62  A    between atoms: _151  and  _153
REMARK   63  A    between atoms: _153  and  _154
REMARK   64  A    between atoms: _153  and  _156
REMARK   65  A    between atoms: _156  and  _157
REMARK   66  A    between atoms: _158  and  _160
REMARK   67  A    between atoms: _160  and  _161
REMARK   68  A    between atoms: _160  and  _163
REMARK   69  A    between atoms: _163  and  _164
REMARK   70  A    between atoms: _170  and  _172
REMARK   71  A    between atoms: _172  and  _173
REMARK   72  A    between atoms: _172  and  _175
REMARK   73  A    between atoms: _175  and  _176
REMARK   74  A    between atoms: _181  and  _182
REMARK   75  A    between atoms: _184  and  _186
REMARK   76  A    between atoms: _186  and  _187
REMARK   77  A    between atoms: _186  and  _189
REMARK   78  A    between atoms: _192  and  _194
REMARK   79  A    between atoms: _194  and  _195
REMARK   80  A    between atoms: _194  and  _197
REMARK   81  A    between atoms: _197  and  _198
REMARK   82  A    between atoms: _198  and  _199
REMARK   83  A    between atoms: _204  and  _206
REMARK   84  A    between atoms: _206  and  _207
REMARK   85  A    between atoms: _210  and  _212
REMARK   86  A    between atoms: _212  and  _213
REMARK   87  A    between atoms: _212  and  _215
REMARK   88  A    between atoms: _215  and  _216
REMARK   89  A    between atoms: _219  and  _221
REMARK   90  A    between atoms: _221  and  _222
REMARK   91  A    between atoms: _221  and  _224
REMARK   92  A    between atoms: _227  and  _229
REMARK   93  A    between atoms: _229  and  _230
REMARK   94  A    between atoms: _229  and  _232
REMARK   95  A    between atoms: _232  and  _233
REMARK   96  A    between atoms: _243  and  _245
REMARK   97  A    between atoms: _245  and  _246
REMARK   98  A    between atoms: _248  and  _250
REMARK   99  A    between atoms: _250  and  _251
REMARK  100  A    between atoms: _250  and  _253
REMARK  101  A    between atoms: _253  and  _254
REMARK  102  A    between atoms: _259  and  _260
REMARK  103  A    between atoms: _262  and  _264
REMARK  104  A    between atoms: _264  and  _265
REMARK  105  A    between atoms: _264  and  _267
REMARK  106  A    between atoms: _267  and  _268
REMARK  107  A    between atoms: _268  and  _269
REMARK  108  A    between atoms: _269  and  _270
REMARK  109  A    between atoms: _270  and  _271
REMARK  110  A    between atoms: _275  and  _277
REMARK  111  A    between atoms: _277  and  _278
REMARK  112  A    between atoms: _277  and  _280
REMARK  113  A    between atoms: _280  and  _281
REMARK  114  A    between atoms: _284  and  _286
REMARK  115  A    between atoms: _286  and  _287
REMARK  116  A    between atoms: _286  and  _289
REMARK  117  A    between atoms: _289  and  _290
REMARK  118  A    between atoms: _293  and  _295
REMARK  119  A    between atoms: _295  and  _296
REMARK  120  A    between atoms: _295  and  _298
REMARK  121  A    between atoms: _298  and  _299
REMARK  122  A    between atoms: _299  and  _300
REMARK  123  A    between atoms: _300  and  _301
REMARK  124  A    between atoms: _301  and  _302
REMARK  125  A    between atoms: _306  and  _308
REMARK  126  A    between atoms: _308  and  _309
REMARK  127  A    between atoms: _308  and  _311
REMARK  128  A    between atoms: _311  and  _312
REMARK  129  A    between atoms: _315  and  _317
REMARK  130  A    between atoms: _317  and  _318
REMARK  131  A    between atoms: _317  and  _320
REMARK  132  A    between atoms: _320  and  _321
REMARK  133  A    between atoms: _321  and  _322
REMARK  134  A    between atoms: _327  and  _329
REMARK  135  A    between atoms: _329  and  _330
REMARK  136  A    between atoms: _329  and  _332
REMARK  137  A    between atoms: _332  and  _333
REMARK  138  A    between atoms: _336  and  _338
REMARK  139  A    between atoms: _338  and  _339
REMARK  140  A    between atoms: _338  and  _341
REMARK  141  A    between atoms: _341  and  _342
REMARK  142  A    between atoms: _347  and  _348
REMARK  143  A    between atoms: _350  and  _352
REMARK  144  A    between atoms: _352  and  _353
REMARK  145  A    between atoms: _352  and  _355
REMARK  146  A    between atoms: _355  and  _356
REMARK  147  A    between atoms: _359  and  _361
REMARK  148  A    between atoms: _361  and  _362
REMARK  149  A    between atoms: _361  and  _364
REMARK  150  A    between atoms: _366  and  _368
REMARK  151  A    between atoms: _368  and  _369
REMARK  152  A    between atoms: _372  and  _374
REMARK  153  A    between atoms: _374  and  _375
REMARK  154  A    between atoms: _374  and  _377
REMARK  155  A    between atoms: _377  and  _378
REMARK  156  A    between atoms: _378  and  _379
REMARK  157  A    between atoms: _379  and  _380
REMARK  158  A    between atoms: _380  and  _381
REMARK  159  A    between atoms: _385  and  _387
REMARK  160  A    between atoms: _387  and  _388
REMARK  161  A    between atoms: _387  and  _390
REMARK  162  A    between atoms: _390  and  _391
REMARK  163  A    between atoms: _394  and  _396
REMARK  164  A    between atoms: _396  and  _397
REMARK  165  A    between atoms: _400  and  _402
REMARK  166  A    between atoms: _402  and  _403
REMARK  167  A    between atoms: _402  and  _405
REMARK  168  A    between atoms: _405  and  _406
REMARK  169  A    between atoms: _406  and  _520
REMARK  170  A    between atoms: _407  and  _409
REMARK  171  A    between atoms: _409  and  _410
REMARK  172  A    between atoms: _409  and  _412
REMARK  173  A    between atoms: _412  and  _413
REMARK  174  A    between atoms: _413  and  _414
REMARK  175  A    between atoms: _414  and  _415
REMARK  176  A    between atoms: _415  and  _416
REMARK  177  A    between atoms: _420  and  _422
REMARK  178  A    between atoms: _422  and  _423
REMARK  179  A    between atoms: _425  and  _427
REMARK  180  A    between atoms: _427  and  _428
REMARK  181  A    between atoms: _427  and  _430
REMARK  182  A    between atoms: _430  and  _431
REMARK  183  A    between atoms: _434  and  _436
REMARK  184  A    between atoms: _436  and  _437
REMARK  185  A    between atoms: _436  and  _439
REMARK  186  A    between atoms: _439  and  _440
REMARK  187  A    between atoms: _442  and  _444
REMARK  188  A    between atoms: _444  and  _445
REMARK  189  A    between atoms: _447  and  _449
REMARK  190  A    between atoms: _449  and  _450
REMARK  191  A    between atoms: _452  and  _454
REMARK  192  A    between atoms: _454  and  _455
REMARK  193  A    between atoms: _454  and  _457
REMARK  194  A    between atoms: _457  and  _458
REMARK  195  A    between atoms: _461  and  _463
REMARK  196  A    between atoms: _463  and  _464
REMARK  197  A    between atoms: _463  and  _466
REMARK  198  A    between atoms: _466  and  _467
REMARK  199  A    between atoms: _470  and  _472
REMARK  200  A    between atoms: _472  and  _473
REMARK  201  A    between atoms: _472  and  _475
REMARK  202  A    between atoms: _475  and  _476
REMARK  203  A    between atoms: _478  and  _480
REMARK  204  A    between atoms: _480  and  _481
REMARK  205  A    between atoms: _480  and  _483
REMARK  206  A    between atoms: _483  and  _484
REMARK  207  A    between atoms: _494  and  _496
REMARK  208  A    between atoms: _496  and  _497
REMARK  209  A    between atoms: _499  and  _501
REMARK  210  A    between atoms: _501  and  _502
REMARK  211  A    between atoms: _501  and  _504
REMARK  212  A    between atoms: _504  and  _505
REMARK  213  A    between atoms: _505  and  _506
REMARK  214  A    between atoms: _509  and  _511
REMARK  215  A    between atoms: _511  and  _512
REMARK  216  A    between atoms: _514  and  _516
REMARK  217  A    between atoms: _516  and  _517
REMARK  218  A    between atoms: _516  and  _519
REMARK  219  A    between atoms: _519  and  _520
REMARK  220  A    between atoms: _521  and  _523
REMARK  221  A    between atoms: _523  and  _524
REMARK  222  A    between atoms: _527  and  _529
REMARK  223  A    between atoms: _529  and  _530
REMARK  224  A    between atoms: _529  and  _532
REMARK  225  A    between atoms: _532  and  _533
REMARK  226  A    between atoms: _533  and  _534
REMARK  227  A    between atoms: _539  and  _541
REMARK  228  A    between atoms: _541  and  _542
REMARK  229  A    between atoms: _541  and  _544
REMARK  230  A    between atoms: _544  and  _545
REMARK  231  A    between atoms: _545  and  _546
REMARK  232  A    between atoms: _546  and  _547
REMARK  233  A    between atoms: _557  and  _558
REMARK  234  A    between atoms: _563  and  _565
REMARK  235  A    between atoms: _565  and  _566
REMARK  236  A    between atoms: _568  and  _570
REMARK  237  A    between atoms: _570  and  _571
REMARK  238  A    between atoms: _570  and  _573
REMARK  239  A    between atoms: _576  and  _578
REMARK  240  A    between atoms: _578  and  _579
REMARK  241  A    between atoms: _578  and  _581
REMARK  242  A    between atoms: _581  and  _582
REMARK  243  A    between atoms: _587  and  _588
REMARK  244  A    between atoms: _590  and  _592
REMARK  245  A    between atoms: _592  and  _593
REMARK  246  A    between atoms: _592  and  _595
REMARK  247  A    between atoms: _595  and  _596
REMARK                            x       y       z     vdW  Elec       q    Type
REMARK                         _______ _______ _______ _____ _____    ______ ____
ROOT
ATOM      1  C   LEU A   2      42.567 -26.008  39.411  0.00  0.00    +0.241 C 
ATOM      2  N   HIS A   3      43.333 -26.970  39.905  0.00  0.00    -0.297 N 
ATOM      3  H   HIS A   3      43.020 -27.477  40.758  0.00  0.00    +0.150 HD
ATOM      4  O   LEU A   2      42.867 -25.334  38.427  0.00  0.00    -0.273 OA
ENDROOT
BRANCH   2   5
ATOM      5  CA  HIS A   3      44.597 -27.338  39.291  0.00  0.00    +0.155 C 
BRANCH   5   6
ATOM      6  C   HIS A   3      44.496 -28.725  38.697  0.00  0.00    +0.241 C 
ATOM      7  O   HIS A   3      43.736 -29.561  39.176  0.00  0.00    -0.273 OA
ATOM      8  N   THR A   4      45.261 -28.966  37.645  0.00  0.00    -0.296 N 
ATOM      9  H   THR A   4      45.789 -28.182  37.210  0.00  0.00    +0.150 HD
BRANCH   8  10
ATOM     10  CA  THR A   4      45.381 -30.304  37.082  0.00  0.00    +0.164 C 
BRANCH  10  11
ATOM     11  CB  THR A   4      45.117 -30.292  35.561  0.00  0.00    +0.136 C 
ATOM     12  CG2 THR A   4      46.041 -29.346  34.812  0.00  0.00    +0.034 C 
BRANCH  11  13
ATOM     13  OG1 THR A   4      45.338 -31.626  35.093  0.00  0.00    -0.382 OA
ATOM     14  HG1 THR A   4      45.179 -31.663  34.117  0.00  0.00    +0.210 HD
ENDBRANCH  11  13
ENDBRANCH  10  11
BRANCH  10  15
ATOM     15  C   THR A   4      46.818 -30.736  37.437  0.00  0.00    +0.229 C 
ATOM     16  O   THR A   4      47.677 -29.850  37.529  0.00  0.00    -0.286 OA
ENDBRANCH  10  15
ENDBRANCH   8  10
ENDBRANCH   5   6
BRANCH   5  17
ATOM     17  CB  HIS A   3      45.698 -27.367  40.357  0.00  0.00    +0.076 C 
BRANCH  17  18
ATOM     18  CG  HIS A   3      46.282 -26.036  40.692  0.00  0.00    +0.082 A 
ATOM     19  ND1 HIS A   3      47.628 -25.898  40.952  0.00  0.00    -0.227 NA
ATOM     20  CE1 HIS A   3      47.812 -24.608  41.200  0.00  0.00    +0.199 A 
ATOM     21  NE2 HIS A   3      46.657 -23.927  41.141  0.00  0.00    -0.221 NA
ATOM     22  CD2 HIS A   3      45.679 -24.826  40.824  0.00  0.00    +0.115 A 
ENDBRANCH  17  18
ENDBRANCH   5  17
ENDBRANCH   2   5
BRANCH   1  23
ATOM     23  CA  LEU A   2      41.274 -25.739  40.151  0.00  0.00    +0.149 C 
BRANCH  23  26
ATOM     24  C   THR A   1      41.657 -23.856  41.664  0.00  0.00    +0.241 C 
ATOM     25  O   THR A   1      41.962 -24.597  42.610  0.00  0.00    -0.274 OA
ATOM     26  N   LEU A   2      41.273 -24.311  40.470  0.00  0.00    -0.297 N 
ATOM     27  H   LEU A   2      40.964 -23.632  39.746  0.00  0.00    +0.150 HD
BRANCH  24  28
ATOM     28  CA  THR A   1      41.639 -22.345  41.842  0.00  0.00    +0.172 C 
BRANCH  28  29
ATOM     29  CB  THR A   1      43.037 -21.684  41.962  0.00  0.00    +0.135 C 
ATOM     30  CG2 THR A   1      43.679 -21.865  43.334  0.00  0.00    +0.034 C 
BRANCH  29  31
ATOM     31  OG1 THR A   1      43.876 -22.235  40.950  0.00  0.00    -0.383 OA
ATOM     32  HG1 THR A   1      43.485 -22.047  40.060  0.00  0.00    +0.210 HD
ENDBRANCH  29  31
ENDBRANCH  28  29
BRANCH  28  33
ATOM     33  N   THR A   1      40.786 -22.101  42.982  0.00  0.00    -0.236 NA
ATOM     34  H   THR A   1      41.097 -22.428  43.919  0.00  0.00    +0.142 HD
ENDBRANCH  28  33
ENDBRANCH  24  28
ENDBRANCH  23  26
BRANCH  23  35
ATOM     35  CB  LEU A   2      40.057 -26.123  39.269  0.00  0.00    +0.029 C 
BRANCH  35  36
ATOM     36  CG  LEU A   2      40.041 -27.570  38.731  0.00  0.00    +0.002 C 
ATOM     37  CD2 LEU A   2      39.840 -28.606  39.864  0.00  0.00    +0.000 C 
ATOM     38  CD1 LEU A   2      38.907 -27.754  37.751  0.00  0.00    +0.000 C 
ENDBRANCH  35  36
ENDBRANCH  23  35
ENDBRANCH   1  23
TORSDOF 16
REMARK  Name = ../refined-set-2016/4y8x/4y8x_pocket.pdb
REMARK  247 active torsions:
REMARK  status: ('A' for Active; 'I' for Inactive)
REMARK    1  A    between atoms: _1  and  _5
REMARK    2  A    between atoms: _5  and  _6
REMARK    3  A    between atoms: _5  and  _8
REMARK    4  A    between atoms: _8  and  _9
REMARK    5  A    between atoms: _12  and  _14
REMARK    6  A    between atoms: _14  and  _15
REMARK    7  A    between atoms: _14  and  _17
REMARK    8  A    between atoms: _20  and  _22
REMARK    9  A    between atoms: _22  and  _23
REMARK   10  A    between atoms: _22  and  _25
REMARK   11  A    between atoms: _25  and  _26
REMARK   12  A    between atoms: _29  and  _31
REMARK   13  A    between atoms: _31  and  _32
REMARK   14  A    between atoms: _31  and  _34
REMARK   15  A    between atoms: _34  and  _35
REMARK   16  A    between atoms: _38  and  _40
REMARK   17  A    between atoms: _40  and  _41
REMARK   18  A    between atoms: _40  and  _43
REMARK   19  A    between atoms: _43  and  _44
REMARK   20  A    between atoms: _49  and  _51
REMARK   21  A    between atoms: _51  and  _52
REMARK   22  A    between atoms: _51  and  _54
REMARK   23  A    between atoms: _54  and  _55
REMARK   24  A    between atoms: _58  and  _60
REMARK   25  A    between atoms: _60  and  _61
REMARK   26  A    between atoms: _60  and  _63
REMARK   27  A    between atoms: _63  and  _64
REMARK   28  A    between atoms: _67  and  _69
REMARK   29  A    between atoms: _69  and  _70
REMARK   30  A    between atoms: _69  and  _72
REMARK   31  A    between atoms: _72  and  _73
REMARK   32  A    between atoms: _73  and  _74
REMARK   33  A    between atoms: _79  and  _81
REMARK   34  A    between atoms: _81  and  _82
REMARK   35  A    between atoms: _81  and  _84
REMARK   36  A    between atoms: _84  and  _85
REMARK   37  A    between atoms: _85  and  _86
REMARK   38  A    between atoms: _86  and  _87
REMARK   39  A    between atoms: _96  and  _98
REMARK   40  A    between atoms: _98  and  _99
REMARK   41  A    between atoms: _98  and  _101
REMARK   42  A    between atoms: _101  and  _102
REMARK   43  A    between atoms: _107  and  _109
REMARK   44  A    between atoms: _109  and  _110
REMARK   45  A    between atoms: _109  and  _112
REMARK   46  A    between atoms: _112  and  _113
REMARK   47  A    between atoms: _116  and  _118
REMARK   48  A    between atoms: _118  and  _119
REMARK   49  A    between atoms: _118  and  _121
REMARK   50  A    between atoms: _121  and  _122
REMARK   51  A    between atoms: _122  and  _157
REMARK   52  A    between atoms: _123  and  _125
REMARK   53  A    between atoms: _125  and  _126
REMARK   54  A    between atoms: _128  and  _130
REMARK   55  A    between atoms: _130  and  _131
REMARK   56  A    between atoms: _134  and  _136
REMARK   57  A    between atoms: _136  and  _137
REMARK   58  A    between atoms: _140  and  _142
REMARK   59  A    between atoms: _142  and  _143
REMARK   60  A    between atoms: _142  and  _145
REMARK   61  A    between atoms: _145  and  _146
REMARK   62  A    between atoms: _151  and  _153
REMARK   63  A    between atoms: _153  and  _154
REMARK   64  A    between atoms: _153  and  _156
REMARK   65  A    between atoms: _156  and  _157
REMARK   66  A    between atoms: _158  and  _160
REMARK   67  A    between atoms: _160  and  _161
REMARK   68  A    between atoms: _160  and  _163
REMARK   69  A    between atoms: _163  and  _164
REMARK   70  A    between atoms: _170  and  _172
REMARK   71  A    between atoms: _172  and  _173
REMARK   72  A    between atoms: _172  and  _175
REMARK   73  A    between atoms: _175  and  _176
REMARK   74  A    between atoms: _181  and  _182
REMARK   75  A    between atoms: _184  and  _186
REMARK   76  A    between atoms: _186  and  _187
REMARK   77  A    between atoms: _186  and  _189
REMARK   78  A    between atoms: _192  and  _194
REMARK   79  A    between atoms: _194  and  _195
REMARK   80  A    between atoms: _194  and  _197
REMARK   81  A    between atoms: _197  and  _198
REMARK   82  A    between atoms: _198  and  _199
REMARK   83  A    between atoms: _204  and  _206
REMARK   84  A    between atoms: _206  and  _207
REMARK   85  A    between atoms: _210  and  _212
REMARK   86  A    between atoms: _212  and  _213
REMARK   87  A    between atoms: _212  and  _215
REMARK   88  A    between atoms: _215  and  _216
REMARK   89  A    between atoms: _219  and  _221
REMARK   90  A    between atoms: _221  and  _222
REMARK   91  A    between atoms: _221  and  _224
REMARK   92  A    between atoms: _227  and  _229
REMARK   93  A    between atoms: _229  and  _230
REMARK   94  A    between atoms: _229  and  _232
REMARK   95  A    between atoms: _232  and  _233
REMARK   96  A    between atoms: _243  and  _245
REMARK   97  A    between atoms: _245  and  _246
REMARK   98  A    between atoms: _248  and  _250
REMARK   99  A    between atoms: _250  and  _251
REMARK  100  A    between atoms: _250  and  _253
REMARK  101  A    between atoms: _253  and  _254
REMARK  102  A    between atoms: _259  and  _260
REMARK  103  A    between atoms: _262  and  _264
REMARK  104  A    between atoms: _264  and  _265
REMARK  105  A    between atoms: _264  and  _267
REMARK  106  A    between atoms: _267  and  _268
REMARK  107  A    between atoms: _268  and  _269
REMARK  108  A    between atoms: _269  and  _270
REMARK  109  A    between atoms: _270  and  _271
REMARK  110  A    between atoms: _275  and  _277
REMARK  111  A    between atoms: _277  and  _278
REMARK  112  A    between atoms: _277  and  _280
REMARK  113  A    between atoms: _280  and  _281
REMARK  114  A    between atoms: _284  and  _286
REMARK  115  A    between atoms: _286  and  _287
REMARK  116  A    between atoms: _286  and  _289
REMARK  117  A    between atoms: _289  and  _290
REMARK  118  A    between atoms: _293  and  _295
REMARK  119  A    between atoms: _295  and  _296
REMARK  120  A    between atoms: _295  and  _298
REMARK  121  A    between atoms: _298  and  _299
REMARK  122  A    between atoms: _299  and  _300
REMARK  123  A    between atoms: _300  and  _301
REMARK  124  A    between atoms: _301  and  _302
REMARK  125  A    between atoms: _306  and  _308
REMARK  126  A    between atoms: _308  and  _309
REMARK  127  A    between atoms: _308  and  _311
REMARK  128  A    between atoms: _311  and  _312
REMARK  129  A    between atoms: _315  and  _317
REMARK  130  A    between atoms: _317  and  _318
REMARK  131  A    between atoms: _317  and  _320
REMARK  132  A    between atoms: _320  and  _321
REMARK  133  A    between atoms: _321  and  _322
REMARK  134  A    between atoms: _327  and  _329
REMARK  135  A    between atoms: _329  and  _330
REMARK  136  A    between atoms: _329  and  _332
REMARK  137  A    between atoms: _332  and  _333
REMARK  138  A    between atoms: _336  and  _338
REMARK  139  A    between atoms: _338  and  _339
REMARK  140  A    between atoms: _338  and  _341
REMARK  141  A    between atoms: _341  and  _342
REMARK  142  A    between atoms: _347  and  _348
REMARK  143  A    between atoms: _350  and  _352
REMARK  144  A    between atoms: _352  and  _353
REMARK  145  A    between atoms: _352  and  _355
REMARK  146  A    between atoms: _355  and  _356
REMARK  147  A    between atoms: _359  and  _361
REMARK  148  A    between atoms: _361  and  _362
REMARK  149  A    between atoms: _361  and  _364
REMARK  150  A    between atoms: _366  and  _368
REMARK  151  A    between atoms: _368  and  _369
REMARK  152  A    between atoms: _372  and  _374
REMARK  153  A    between atoms: _374  and  _375
REMARK  154  A    between atoms: _374  and  _377
REMARK  155  A    between atoms: _377  and  _378
REMARK  156  A    between atoms: _378  and  _379
REMARK  157  A    between atoms: _379  and  _380
REMARK  158  A    between atoms: _380  and  _381
REMARK  159  A    between atoms: _385  and  _387
REMARK  160  A    between atoms: _387  and  _388
REMARK  161  A    between atoms: _387  and  _390
REMARK  162  A    between atoms: _390  and  _391
REMARK  163  A    between atoms: _394  and  _396
REMARK  164  A    between atoms: _396  and  _397
REMARK  165  A    between atoms: _400  and  _402
REMARK  166  A    between atoms: _402  and  _403
REMARK  167  A    between atoms: _402  and  _405
REMARK  168  A    between atoms: _405  and  _406
REMARK  169  A    between atoms: _406  and  _520
REMARK  170  A    between atoms: _407  and  _409
REMARK  171  A    between atoms: _409  and  _410
REMARK  172  A    between atoms: _409  and  _412
REMARK  173  A    between atoms: _412  and  _413
REMARK  174  A    between atoms: _413  and  _414
REMARK  175  A    between atoms: _414  and  _415
REMARK  176  A    between atoms: _415  and  _416
REMARK  177  A    between atoms: _420  and  _422
REMARK  178  A    between atoms: _422  and  _423
REMARK  179  A    between atoms: _425  and  _427
REMARK  180  A    between atoms: _427  and  _428
REMARK  181  A    between atoms: _427  and  _430
REMARK  182  A    between atoms: _430  and  _431
REMARK  183  A    between atoms: _434  and  _436
REMARK  184  A    between atoms: _436  and  _437
REMARK  185  A    between atoms: _436  and  _439
REMARK  186  A    between atoms: _439  and  _440
REMARK  187  A    between atoms: _442  and  _444
REMARK  188  A    between atoms: _444  and  _445
REMARK  189  A    between atoms: _447  and  _449
REMARK  190  A    between atoms: _449  and  _450
REMARK  191  A    between atoms: _452  and  _454
REMARK  192  A    between atoms: _454  and  _455
REMARK  193  A    between atoms: _454  and  _457
REMARK  194  A    between atoms: _457  and  _458
REMARK  195  A    between atoms: _461  and  _463
REMARK  196  A    between atoms: _463  and  _464
REMARK  197  A    between atoms: _463  and  _466
REMARK  198  A    between atoms: _466  and  _467
REMARK  199  A    between atoms: _470  and  _472
REMARK  200  A    between atoms: _472  and  _473
REMARK  201  A    between atoms: _472  and  _475
REMARK  202  A    between atoms: _475  and  _476
REMARK  203  A    between atoms: _478  and  _480
REMARK  204  A    between atoms: _480  and  _481
REMARK  205  A    between atoms: _480  and  _483
REMARK  206  A    between atoms: _483  and  _484
REMARK  207  A    between atoms: _494  and  _496
REMARK  208  A    between atoms: _496  and  _497
REMARK  209  A    between atoms: _499  and  _501
REMARK  210  A    between atoms: _501  and  _502
REMARK  211  A    between atoms: _501  and  _504
REMARK  212  A    between atoms: _504  and  _505
REMARK  213  A    between atoms: _505  and  _506
REMARK  214  A    between atoms: _509  and  _511
REMARK  215  A    between atoms: _511  and  _512
REMARK  216  A    between atoms: _514  and  _516
REMARK  217  A    between atoms: _516  and  _517
REMARK  218  A    between atoms: _516  and  _519
REMARK  219  A    between atoms: _519  and  _520
REMARK  220  A    between atoms: _521  and  _523
REMARK  221  A    between atoms: _523  and  _524
REMARK  222  A    between atoms: _527  and  _529
REMARK  223  A    between atoms: _529  and  _530
REMARK  224  A    between atoms: _529  and  _532
REMARK  225  A    between atoms: _532  and  _533
REMARK  226  A    between atoms: _533  and  _534
REMARK  227  A    between atoms: _539  and  _541
REMARK  228  A    between atoms: _541  and  _542
REMARK  229  A    between atoms: _541  and  _544
REMARK  230  A    between atoms: _544  and  _545
REMARK  231  A    between atoms: _545  and  _546
REMARK  232  A    between atoms: _546  and  _547
REMARK  233  A    between atoms: _557  and  _558
REMARK  234  A    between atoms: _563  and  _565
REMARK  235  A    between atoms: _565  and  _566
REMARK  236  A    between atoms: _568  and  _570
REMARK  237  A    between atoms: _570  and  _571
REMARK  238  A    between atoms: _570  and  _573
REMARK  239  A    between atoms: _576  and  _578
REMARK  240  A    between atoms: _578  and  _579
REMARK  241  A    between atoms: _578  and  _581
REMARK  242  A    between atoms: _581  and  _582
REMARK  243  A    between atoms: _587  and  _588
REMARK  244  A    between atoms: _590  and  _592
REMARK  245  A    between atoms: _592  and  _593
REMARK  246  A    between atoms: _592  and  _595
REMARK  247  A    between atoms: _595  and  _596
REMARK                            x       y       z     vdW  Elec       q    Type
REMARK                         _______ _______ _______ _____ _____    ______ ____
ROOT
ATOM      1  CA  TYR A   6      40.286 -22.930  35.797  0.00  0.00    +0.160 C 
ENDROOT
BRANCH   1   2
ATOM      2  C   TYR A   6      39.958 -22.345  37.161  0.00  0.00    +0.242 C 
ATOM      3  O   TYR A   6      40.473 -22.827  38.167  0.00  0.00    -0.273 OA
ATOM      4  N   GLY A   7      39.011 -21.422  37.186  0.00  0.00    -0.296 N 
ATOM      5  H   GLY A   7      38.667 -21.039  36.282  0.00  0.00    +0.150 HD
BRANCH   4   6
ATOM      6  CA  GLY A   7      38.425 -20.916  38.428  0.00  0.00    +0.163 C 
BRANCH   6   7
ATOM      7  C   GLY A   7      37.188 -21.752  38.732  0.00  0.00    +0.229 C 
ATOM      8  O   GLY A   7      36.770 -22.597  37.927  0.00  0.00    -0.286 OA
ENDBRANCH   6   7
ENDBRANCH   4   6
ENDBRANCH   1   2
BRANCH   1  10
ATOM      9  C   PHE A   5      42.304 -23.969  34.814  0.00  0.00    +0.241 C 
ATOM     10  N   TYR A   6      41.522 -23.709  35.877  0.00  0.00    -0.296 N 
ATOM     11  H   TYR A   6      41.811 -24.081  36.804  0.00  0.00    +0.150 HD
ATOM     12  O   PHE A   5      42.114 -23.472  33.707  0.00  0.00    -0.273 OA
BRANCH   9  13
ATOM     13  CA  PHE A   5      43.445 -24.965  35.022  0.00  0.00    +0.149 C 
BRANCH  13  15
ATOM     14  C   CYS A   4      45.476 -24.175  36.097  0.00  0.00    +0.241 C 
ATOM     15  N   PHE A   5      44.233 -24.616  36.196  0.00  0.00    -0.297 N 
ATOM     16  H   PHE A   5      43.806 -24.716  37.139  0.00  0.00    +0.150 HD
ATOM     17  O   CYS A   4      46.078 -24.085  35.017  0.00  0.00    -0.273 OA
BRANCH  14  18
ATOM     18  CA  CYS A   4      46.169 -23.806  37.417  0.00  0.00    +0.155 C 
BRANCH  18  20
ATOM     19  C   HIS A   3      47.787 -25.628  37.219  0.00  0.00    +0.241 C 
ATOM     20  N   CYS A   4      47.534 -24.335  37.332  0.00  0.00    -0.297 N 
ATOM     21  H   CYS A   4      48.332 -23.669  37.362  0.00  0.00    +0.150 HD
ATOM     22  O   HIS A   3      46.909 -26.497  37.222  0.00  0.00    -0.273 OA
BRANCH  19  23
ATOM     23  CA  HIS A   3      49.251 -26.007  37.021  0.00  0.00    +0.149 C 
BRANCH  23  26
ATOM     24  C   ALA A   2      50.662 -27.858  37.747  0.00  0.00    +0.241 C 
ATOM     25  O   ALA A   2      51.676 -27.154  37.748  0.00  0.00    -0.273 OA
ATOM     26  N   HIS A   3      49.444 -27.404  37.391  0.00  0.00    -0.297 N 
ATOM     27  H   HIS A   3      48.634 -28.056  37.380  0.00  0.00    +0.150 HD
BRANCH  24  28
ATOM     28  CA  ALA A   2      50.723 -29.298  38.184  0.00  0.00    +0.149 C 
BRANCH  28  30
ATOM     29  C   ALA A   1      51.601 -30.392  36.199  0.00  0.00    +0.241 C 
ATOM     30  N   ALA A   2      51.761 -30.058  37.493  0.00  0.00    -0.297 N 
ATOM     31  H   ALA A   2      52.623 -30.341  38.001  0.00  0.00    +0.150 HD
ATOM     32  O   ALA A   1      50.605 -30.065  35.546  0.00  0.00    -0.274 OA
BRANCH  29  33
ATOM     33  CA  ALA A   1      52.688 -31.249  35.538  0.00  0.00    +0.172 C 
BRANCH  33  34
ATOM     34  N   ALA A   1      52.090 -31.879  34.346  0.00  0.00    -0.236 NA
ATOM     35  H   ALA A   1      51.575 -31.264  33.685  0.00  0.00    +0.142 HD
ENDBRANCH  33  34
BRANCH  33  36
ATOM     36  CB  ALA A   1      53.955 -30.430  35.206  0.00  0.00    +0.135 C 
ATOM     37  CG2 ALA A   1      55.074 -31.273  34.596  0.00  0.00    +0.034 C 
BRANCH  36  38
ATOM     38  OG1 ALA A   1      53.614 -29.361  34.332  0.00  0.00    -0.383 OA
ATOM     39  HG1 ALA A   1      54.427 -28.837  34.120  0.00  0.00    +0.210 HD
ENDBRANCH  36  38
ENDBRANCH  33  36
ENDBRANCH  29  33
ENDBRANCH  28  30
BRANCH  28  40
ATOM     40  CB  ALA A   2      50.813 -29.408  39.717  0.00  0.00    +0.039 C 
BRANCH  40  41
ATOM     41  CG  ALA A   2      49.536 -28.848  40.393  0.00  0.00    +0.087 C 
BRANCH  41  42
ATOM     42  CD  ALA A   2      49.484 -29.029  41.877  0.00  0.00    +0.219 C 
ATOM     43  NE2 ALA A   2      48.895 -28.065  42.579  0.00  0.00    -0.329 N 
ATOM     44 HE21 ALA A   2      48.742 -28.185  43.601  0.00  0.00    +0.145 HD
ATOM     45 HE22 ALA A   2      48.587 -27.191  42.106  0.00  0.00    +0.145 HD
ATOM     46  OE1 ALA A   2      49.859 -30.072  42.404  0.00  0.00    -0.275 OA
ENDBRANCH  41  42
ENDBRANCH  40  41
ENDBRANCH  28  40
ENDBRANCH  24  28
ENDBRANCH  23  26
BRANCH  23  47
ATOM     47  CB  HIS A   3      49.704 -25.742  35.568  0.00  0.00    +0.033 C 
BRANCH  47  48
ATOM     48  CG  HIS A   3      48.841 -26.426  34.508  0.00  0.00    +0.045 C 
BRANCH  48  49
ATOM     49  CD  HIS A   3      49.599 -26.569  33.206  0.00  0.00    +0.174 C 
BRANCH  49  50
ATOM     50  NE  HIS A   3      48.782 -26.195  32.052  0.00  0.00    -0.265 N 
ATOM     51  HE  HIS A   3      47.864 -26.669  31.934  0.00  0.00    +0.259 HD
ATOM     52  CZ  HIS A   3      49.134 -25.289  31.142  0.00  0.00    +0.342 C 
ATOM     53  NH2 HIS A   3      50.299 -24.657  31.239  0.00  0.00    -0.292 N 
ATOM     54 HH21 HIS A   3      50.941 -24.869  32.029  0.00  0.00    +0.255 HD
ATOM     55 HH22 HIS A   3      50.568 -23.950  30.525  0.00  0.00    +0.255 HD
ATOM     56  NH1 HIS A   3      48.328 -25.014  30.125  0.00  0.00    -0.292 N 
ATOM     57 HH11 HIS A   3      47.417 -25.507  30.036  0.00  0.00    +0.255 HD
ATOM     58 HH12 HIS A   3      48.608 -24.306  29.417  0.00  0.00    +0.255 HD
ENDBRANCH  49  50
ENDBRANCH  48  49
ENDBRANCH  47  48
ENDBRANCH  23  47
ENDBRANCH  19  23
ENDBRANCH  18  20
BRANCH  18  59
ATOM     59  CB  CYS A   4      46.226 -22.285  37.567  0.00  0.00    +0.076 C 
BRANCH  59  60
ATOM     60  CG  CYS A   4      44.928 -21.584  37.309  0.00  0.00    +0.082 A 
ATOM     61  ND1 CYS A   4      44.007 -21.377  38.321  0.00  0.00    -0.227 NA
ATOM     62  CE1 CYS A   4      43.012 -20.696  37.768  0.00  0.00    +0.199 A 
ATOM     63  NE2 CYS A   4      43.252 -20.434  36.480  0.00  0.00    -0.221 NA
ATOM     64  CD2 CYS A   4      44.478 -20.984  36.175  0.00  0.00    +0.115 A 
ENDBRANCH  59  60
ENDBRANCH  18  59
ENDBRANCH  14  18
ENDBRANCH  13  15
BRANCH  13  65
ATOM     65  CB  PHE A   5      42.859 -26.377  35.181  0.00  0.00    +0.029 C 
BRANCH  65  66
ATOM     66  CG  PHE A   5      41.908 -26.874  34.077  0.00  0.00    +0.002 C 
ATOM     67  CD2 PHE A   5      41.306 -28.235  34.445  0.00  0.00    +0.000 C 
ATOM     68  CD1 PHE A   5      42.625 -26.908  32.705  0.00  0.00    +0.000 C 
ENDBRANCH  65  66
ENDBRANCH  13  65
ENDBRANCH   9  13
ENDBRANCH   1  10
BRANCH   1  69
ATOM     69  CB  TYR A   6      39.150 -23.861  35.348  0.00  0.00    +0.098 C 
BRANCH  69  70
ATOM     70  SG  TYR A   6      38.965 -24.053  33.553  0.00  0.00    -0.080 S 
BRANCH  70  71
ATOM     71  SG  CYS A   4      37.020 -24.627  33.401  0.00  0.00    -0.080 S 
BRANCH  71  72
ATOM     72  CB  CYS A   4      37.174 -26.386  33.037  0.00  0.00    +0.098 C 
BRANCH  72  73
ATOM     73  CA  CYS A   4      37.440 -26.705  31.568  0.00  0.00    +0.160 C 
BRANCH  73  74
ATOM     74  N   CYS A   4      36.206 -26.510  30.780  0.00  0.00    -0.296 N 
ATOM     75  H   CYS A   4      35.381 -26.120  31.279  0.00  0.00    +0.150 HD
ATOM     76  C   HIS A   3      36.056 -26.791  29.479  0.00  0.00    +0.241 C 
ATOM     77  O   HIS A   3      36.983 -27.211  28.767  0.00  0.00    -0.273 OA
BRANCH  76  78
ATOM     78  CA  HIS A   3      34.658 -26.574  28.875  0.00  0.00    +0.155 C 
BRANCH  78  79
ATOM     79  N   HIS A   3      33.567 -26.546  29.878  0.00  0.00    -0.297 N 
ATOM     80  C   ALA A   2      33.289 -27.652  30.610  0.00  0.00    +0.241 C 
ATOM     81  O   ALA A   2      33.972 -28.680  30.525  0.00  0.00    -0.273 OA
ATOM     82  H   HIS A   3      33.014 -25.677  30.020  0.00  0.00    +0.150 HD
BRANCH  80  83
ATOM     83  CA  ALA A   2      32.068 -27.629  31.560  0.00  0.00    +0.149 C 
ATOM     84  CB  ALA A   2      30.806 -28.025  30.766  0.00  0.00    +0.031 C 
BRANCH  83  85
ATOM     85  N   ALA A   2      31.864 -26.314  32.160  0.00  0.00    -0.297 N 
ATOM     86  C   ALA A   1      32.761 -25.776  32.986  0.00  0.00    +0.238 C 
ATOM     87  O   ALA A   1      33.785 -26.359  33.328  0.00  0.00    -0.274 OA
ATOM     88  H   ALA A   2      30.997 -25.784  31.937  0.00  0.00    +0.150 HD
BRANCH  86  89
ATOM     89  CA  ALA A   1      32.472 -24.365  33.489  0.00  0.00    +0.145 C 
ATOM     90  CB  ALA A   1      33.203 -23.324  32.620  0.00  0.00    +0.028 C 
BRANCH  89  91
ATOM     91  N   ALA A   1      32.883 -24.241  34.879  0.00  0.00    -0.238 NA
ATOM     92  H   ALA A   1      33.874 -24.007  35.090  0.00  0.00    +0.142 HD
ENDBRANCH  89  91
ENDBRANCH  86  89
ENDBRANCH  83  85
ENDBRANCH  80  83
ENDBRANCH  78  79
BRANCH  78  93
ATOM     93  CB  HIS A   3      34.635 -25.339  27.953  0.00  0.00    +0.076 C 
BRANCH  93  94
ATOM     94  CG  HIS A   3      35.121 -24.093  28.624  0.00  0.00    +0.082 A 
ATOM     95  ND1 HIS A   3      34.247 -23.125  29.050  0.00  0.00    -0.227 NA
ATOM     96  CE1 HIS A   3      34.989 -22.167  29.591  0.00  0.00    +0.199 A 
ATOM     97  NE2 HIS A   3      36.282 -22.502  29.599  0.00  0.00    -0.221 NA
ATOM     98  CD2 HIS A   3      36.384 -23.725  28.959  0.00  0.00    +0.115 A 
ENDBRANCH  93  94
ENDBRANCH  78  93
ENDBRANCH  76  78
ENDBRANCH  73  74
BRANCH  73  99
ATOM     99  C   CYS A   4      37.956 -28.127  31.454  0.00  0.00    +0.242 C 
ATOM    100  O   CYS A   4      39.149 -28.370  31.615  0.00  0.00    -0.273 OA
ATOM    101  N   PHE A   5      37.019 -29.078  31.319  0.00  0.00    -0.297 N 
ATOM    102  H   PHE A   5      36.031 -28.795  31.158  0.00  0.00    +0.150 HD
BRANCH 101 103
ATOM    103  CA  PHE A   5      37.346 -30.497  31.391  0.00  0.00    +0.153 C 
BRANCH 103 104
ATOM    104  C   PHE A   5      37.612 -31.144  30.066  0.00  0.00    +0.241 C 
ATOM    105  O   PHE A   5      37.693 -32.371  30.022  0.00  0.00    -0.273 OA
ATOM    106  N   TYR A   6      37.856 -30.338  29.004  0.00  0.00    -0.298 N 
ATOM    107  H   TYR A   6      37.807 -29.306  29.123  0.00  0.00    +0.150 HD
BRANCH 106 108
ATOM    108  CA  TYR A   6      38.189 -30.900  27.685  0.00  0.00    +0.141 C 
BRANCH 108 109
ATOM    109  C   TYR A   6      39.419 -31.807  27.836  0.00  0.00    +0.227 C 
ATOM    110  O   TYR A   6      40.423 -31.383  28.406  0.00  0.00    -0.286 OA
ENDBRANCH 108 109
BRANCH 108 111
ATOM    111  CB  TYR A   6      38.453 -29.779  26.658  0.00  0.00    +0.054 C 
BRANCH 111 112
ATOM    112  CG  TYR A   6      38.743 -30.341  25.282  0.00  0.00    -0.020 A 
ATOM    113  CD2 TYR A   6      40.056 -30.503  24.834  0.00  0.00    -0.001 A 
ATOM    114  CE2 TYR A   6      40.328 -31.056  23.574  0.00  0.00    +0.036 A 
ATOM    115  CZ  TYR A   6      39.274 -31.451  22.757  0.00  0.00    +0.134 A 
ATOM    116  CE1 TYR A   6      37.965 -31.315  23.192  0.00  0.00    +0.036 A 
ATOM    117  CD1 TYR A   6      37.707 -30.770  24.452  0.00  0.00    -0.001 A 
BRANCH 115 118
ATOM    118  OH  TYR A   6      39.494 -31.972  21.506  0.00  0.00    -0.506 OA
ATOM    119  HH  TYR A   6      40.041 -32.793  21.583  0.00  0.00    +0.292 HD
ENDBRANCH 115 118
ENDBRANCH 111 112
ENDBRANCH 108 111
ENDBRANCH 106 108
ENDBRANCH 103 104
BRANCH 103 120
ATOM    120  CB  PHE A   5      36.260 -31.233  32.184  0.00  0.00    +0.055 C 
BRANCH 120 121
ATOM    121  CG  PHE A   5      36.148 -30.546  33.525  0.00  0.00    -0.020 A 
ATOM    122  CD2 PHE A   5      37.090 -30.773  34.521  0.00  0.00    -0.004 A 
ATOM    123  CE2 PHE A   5      37.056 -30.047  35.716  0.00  0.00    -0.000 A 
ATOM    124  CZ  PHE A   5      36.046 -29.133  35.938  0.00  0.00    -0.000 A 
ATOM    125  CE1 PHE A   5      35.076 -28.925  34.975  0.00  0.00    -0.000 A 
ATOM    126  CD1 PHE A   5      35.132 -29.624  33.770  0.00  0.00    -0.004 A 
ENDBRANCH 120 121
ENDBRANCH 103 120
ENDBRANCH 101 103
ENDBRANCH  73  99
ENDBRANCH  72  73
ENDBRANCH  71  72
ENDBRANCH  70  71
ENDBRANCH  69  70
ENDBRANCH   1  69
TORSDOF 51
REMARK  Name = ../refined-set-2016/4y8x/4y8x_pocket.pdb
REMARK  247 active torsions:
REMARK  status: ('A' for Active; 'I' for Inactive)
REMARK    1  A    between atoms: _1  and  _5
REMARK    2  A    between atoms: _5  and  _6
REMARK    3  A    between atoms: _5  and  _8
REMARK    4  A    between atoms: _8  and  _9
REMARK    5  A    between atoms: _12  and  _14
REMARK    6  A    between atoms: _14  and  _15
REMARK    7  A    between atoms: _14  and  _17
REMARK    8  A    between atoms: _20  and  _22
REMARK    9  A    between atoms: _22  and  _23
REMARK   10  A    between atoms: _22  and  _25
REMARK   11  A    between atoms: _25  and  _26
REMARK   12  A    between atoms: _29  and  _31
REMARK   13  A    between atoms: _31  and  _32
REMARK   14  A    between atoms: _31  and  _34
REMARK   15  A    between atoms: _34  and  _35
REMARK   16  A    between atoms: _38  and  _40
REMARK   17  A    between atoms: _40  and  _41
REMARK   18  A    between atoms: _40  and  _43
REMARK   19  A    between atoms: _43  and  _44
REMARK   20  A    between atoms: _49  and  _51
REMARK   21  A    between atoms: _51  and  _52
REMARK   22  A    between atoms: _51  and  _54
REMARK   23  A    between atoms: _54  and  _55
REMARK   24  A    between atoms: _58  and  _60
REMARK   25  A    between atoms: _60  and  _61
REMARK   26  A    between atoms: _60  and  _63
REMARK   27  A    between atoms: _63  and  _64
REMARK   28  A    between atoms: _67  and  _69
REMARK   29  A    between atoms: _69  and  _70
REMARK   30  A    between atoms: _69  and  _72
REMARK   31  A    between atoms: _72  and  _73
REMARK   32  A    between atoms: _73  and  _74
REMARK   33  A    between atoms: _79  and  _81
REMARK   34  A    between atoms: _81  and  _82
REMARK   35  A    between atoms: _81  and  _84
REMARK   36  A    between atoms: _84  and  _85
REMARK   37  A    between atoms: _85  and  _86
REMARK   38  A    between atoms: _86  and  _87
REMARK   39  A    between atoms: _96  and  _98
REMARK   40  A    between atoms: _98  and  _99
REMARK   41  A    between atoms: _98  and  _101
REMARK   42  A    between atoms: _101  and  _102
REMARK   43  A    between atoms: _107  and  _109
REMARK   44  A    between atoms: _109  and  _110
REMARK   45  A    between atoms: _109  and  _112
REMARK   46  A    between atoms: _112  and  _113
REMARK   47  A    between atoms: _116  and  _118
REMARK   48  A    between atoms: _118  and  _119
REMARK   49  A    between atoms: _118  and  _121
REMARK   50  A    between atoms: _121  and  _122
REMARK   51  A    between atoms: _122  and  _157
REMARK   52  A    between atoms: _123  and  _125
REMARK   53  A    between atoms: _125  and  _126
REMARK   54  A    between atoms: _128  and  _130
REMARK   55  A    between atoms: _130  and  _131
REMARK   56  A    between atoms: _134  and  _136
REMARK   57  A    between atoms: _136  and  _137
REMARK   58  A    between atoms: _140  and  _142
REMARK   59  A    between atoms: _142  and  _143
REMARK   60  A    between atoms: _142  and  _145
REMARK   61  A    between atoms: _145  and  _146
REMARK   62  A    between atoms: _151  and  _153
REMARK   63  A    between atoms: _153  and  _154
REMARK   64  A    between atoms: _153  and  _156
REMARK   65  A    between atoms: _156  and  _157
REMARK   66  A    between atoms: _158  and  _160
REMARK   67  A    between atoms: _160  and  _161
REMARK   68  A    between atoms: _160  and  _163
REMARK   69  A    between atoms: _163  and  _164
REMARK   70  A    between atoms: _170  and  _172
REMARK   71  A    between atoms: _172  and  _173
REMARK   72  A    between atoms: _172  and  _175
REMARK   73  A    between atoms: _175  and  _176
REMARK   74  A    between atoms: _181  and  _182
REMARK   75  A    between atoms: _184  and  _186
REMARK   76  A    between atoms: _186  and  _187
REMARK   77  A    between atoms: _186  and  _189
REMARK   78  A    between atoms: _192  and  _194
REMARK   79  A    between atoms: _194  and  _195
REMARK   80  A    between atoms: _194  and  _197
REMARK   81  A    between atoms: _197  and  _198
REMARK   82  A    between atoms: _198  and  _199
REMARK   83  A    between atoms: _204  and  _206
REMARK   84  A    between atoms: _206  and  _207
REMARK   85  A    between atoms: _210  and  _212
REMARK   86  A    between atoms: _212  and  _213
REMARK   87  A    between atoms: _212  and  _215
REMARK   88  A    between atoms: _215  and  _216
REMARK   89  A    between atoms: _219  and  _221
REMARK   90  A    between atoms: _221  and  _222
REMARK   91  A    between atoms: _221  and  _224
REMARK   92  A    between atoms: _227  and  _229
REMARK   93  A    between atoms: _229  and  _230
REMARK   94  A    between atoms: _229  and  _232
REMARK   95  A    between atoms: _232  and  _233
REMARK   96  A    between atoms: _243  and  _245
REMARK   97  A    between atoms: _245  and  _246
REMARK   98  A    between atoms: _248  and  _250
REMARK   99  A    between atoms: _250  and  _251
REMARK  100  A    between atoms: _250  and  _253
REMARK  101  A    between atoms: _253  and  _254
REMARK  102  A    between atoms: _259  and  _260
REMARK  103  A    between atoms: _262  and  _264
REMARK  104  A    between atoms: _264  and  _265
REMARK  105  A    between atoms: _264  and  _267
REMARK  106  A    between atoms: _267  and  _268
REMARK  107  A    between atoms: _268  and  _269
REMARK  108  A    between atoms: _269  and  _270
REMARK  109  A    between atoms: _270  and  _271
REMARK  110  A    between atoms: _275  and  _277
REMARK  111  A    between atoms: _277  and  _278
REMARK  112  A    between atoms: _277  and  _280
REMARK  113  A    between atoms: _280  and  _281
REMARK  114  A    between atoms: _284  and  _286
REMARK  115  A    between atoms: _286  and  _287
REMARK  116  A    between atoms: _286  and  _289
REMARK  117  A    between atoms: _289  and  _290
REMARK  118  A    between atoms: _293  and  _295
REMARK  119  A    between atoms: _295  and  _296
REMARK  120  A    between atoms: _295  and  _298
REMARK  121  A    between atoms: _298  and  _299
REMARK  122  A    between atoms: _299  and  _300
REMARK  123  A    between atoms: _300  and  _301
REMARK  124  A    between atoms: _301  and  _302
REMARK  125  A    between atoms: _306  and  _308
REMARK  126  A    between atoms: _308  and  _309
REMARK  127  A    between atoms: _308  and  _311
REMARK  128  A    between atoms: _311  and  _312
REMARK  129  A    between atoms: _315  and  _317
REMARK  130  A    between atoms: _317  and  _318
REMARK  131  A    between atoms: _317  and  _320
REMARK  132  A    between atoms: _320  and  _321
REMARK  133  A    between atoms: _321  and  _322
REMARK  134  A    between atoms: _327  and  _329
REMARK  135  A    between atoms: _329  and  _330
REMARK  136  A    between atoms: _329  and  _332
REMARK  137  A    between atoms: _332  and  _333
REMARK  138  A    between atoms: _336  and  _338
REMARK  139  A    between atoms: _338  and  _339
REMARK  140  A    between atoms: _338  and  _341
REMARK  141  A    between atoms: _341  and  _342
REMARK  142  A    between atoms: _347  and  _348
REMARK  143  A    between atoms: _350  and  _352
REMARK  144  A    between atoms: _352  and  _353
REMARK  145  A    between atoms: _352  and  _355
REMARK  146  A    between atoms: _355  and  _356
REMARK  147  A    between atoms: _359  and  _361
REMARK  148  A    between atoms: _361  and  _362
REMARK  149  A    between atoms: _361  and  _364
REMARK  150  A    between atoms: _366  and  _368
REMARK  151  A    between atoms: _368  and  _369
REMARK  152  A    between atoms: _372  and  _374
REMARK  153  A    between atoms: _374  and  _375
REMARK  154  A    between atoms: _374  and  _377
REMARK  155  A    between atoms: _377  and  _378
REMARK  156  A    between atoms: _378  and  _379
REMARK  157  A    between atoms: _379  and  _380
REMARK  158  A    between atoms: _380  and  _381
REMARK  159  A    between atoms: _385  and  _387
REMARK  160  A    between atoms: _387  and  _388
REMARK  161  A    between atoms: _387  and  _390
REMARK  162  A    between atoms: _390  and  _391
REMARK  163  A    between atoms: _394  and  _396
REMARK  164  A    between atoms: _396  and  _397
REMARK  165  A    between atoms: _400  and  _402
REMARK  166  A    between atoms: _402  and  _403
REMARK  167  A    between atoms: _402  and  _405
REMARK  168  A    between atoms: _405  and  _406
REMARK  169  A    between atoms: _406  and  _520
REMARK  170  A    between atoms: _407  and  _409
REMARK  171  A    between atoms: _409  and  _410
REMARK  172  A    between atoms: _409  and  _412
REMARK  173  A    between atoms: _412  and  _413
REMARK  174  A    between atoms: _413  and  _414
REMARK  175  A    between atoms: _414  and  _415
REMARK  176  A    between atoms: _415  and  _416
REMARK  177  A    between atoms: _420  and  _422
REMARK  178  A    between atoms: _422  and  _423
REMARK  179  A    between atoms: _425  and  _427
REMARK  180  A    between atoms: _427  and  _428
REMARK  181  A    between atoms: _427  and  _430
REMARK  182  A    between atoms: _430  and  _431
REMARK  183  A    between atoms: _434  and  _436
REMARK  184  A    between atoms: _436  and  _437
REMARK  185  A    between atoms: _436  and  _439
REMARK  186  A    between atoms: _439  and  _440
REMARK  187  A    between atoms: _442  and  _444
REMARK  188  A    between atoms: _444  and  _445
REMARK  189  A    between atoms: _447  and  _449
REMARK  190  A    between atoms: _449  and  _450
REMARK  191  A    between atoms: _452  and  _454
REMARK  192  A    between atoms: _454  and  _455
REMARK  193  A    between atoms: _454  and  _457
REMARK  194  A    between atoms: _457  and  _458
REMARK  195  A    between atoms: _461  and  _463
REMARK  196  A    between atoms: _463  and  _464
REMARK  197  A    between atoms: _463  and  _466
REMARK  198  A    between atoms: _466  and  _467
REMARK  199  A    between atoms: _470  and  _472
REMARK  200  A    between atoms: _472  and  _473
REMARK  201  A    between atoms: _472  and  _475
REMARK  202  A    between atoms: _475  and  _476
REMARK  203  A    between atoms: _478  and  _480
REMARK  204  A    between atoms: _480  and  _481
REMARK  205  A    between atoms: _480  and  _483
REMARK  206  A    between atoms: _483  and  _484
REMARK  207  A    between atoms: _494  and  _496
REMARK  208  A    between atoms: _496  and  _497
REMARK  209  A    between atoms: _499  and  _501
REMARK  210  A    between atoms: _501  and  _502
REMARK  211  A    between atoms: _501  and  _504
REMARK  212  A    between atoms: _504  and  _505
REMARK  213  A    between atoms: _505  and  _506
REMARK  214  A    between atoms: _509  and  _511
REMARK  215  A    between atoms: _511  and  _512
REMARK  216  A    between atoms: _514  and  _516
REMARK  217  A    between atoms: _516  and  _517
REMARK  218  A    between atoms: _516  and  _519
REMARK  219  A    between atoms: _519  and  _520
REMARK  220  A    between atoms: _521  and  _523
REMARK  221  A    between atoms: _523  and  _524
REMARK  222  A    between atoms: _527  and  _529
REMARK  223  A    between atoms: _529  and  _530
REMARK  224  A    between atoms: _529  and  _532
REMARK  225  A    between atoms: _532  and  _533
REMARK  226  A    between atoms: _533  and  _534
REMARK  227  A    between atoms: _539  and  _541
REMARK  228  A    between atoms: _541  and  _542
REMARK  229  A    between atoms: _541  and  _544
REMARK  230  A    between atoms: _544  and  _545
REMARK  231  A    between atoms: _545  and  _546
REMARK  232  A    between atoms: _546  and  _547
REMARK  233  A    between atoms: _557  and  _558
REMARK  234  A    between atoms: _563  and  _565
REMARK  235  A    between atoms: _565  and  _566
REMARK  236  A    between atoms: _568  and  _570
REMARK  237  A    between atoms: _570  and  _571
REMARK  238  A    between atoms: _570  and  _573
REMARK  239  A    between atoms: _576  and  _578
REMARK  240  A    between atoms: _578  and  _579
REMARK  241  A    between atoms: _578  and  _581
REMARK  242  A    between atoms: _581  and  _582
REMARK  243  A    between atoms: _587  and  _588
REMARK  244  A    between atoms: _590  and  _592
REMARK  245  A    between atoms: _592  and  _593
REMARK  246  A    between atoms: _592  and  _595
REMARK  247  A    between atoms: _595  and  _596
REMARK                            x       y       z     vdW  Elec       q    Type
REMARK                         _______ _______ _______ _____ _____    ______ ____
ROOT
ATOM      1  CA  VAL A   1      40.264 -34.560  31.392  0.00  0.00    +0.133 C 
ENDROOT
BRANCH   1   2
ATOM      2  CB  VAL A   1      39.761 -33.559  32.491  0.00  0.00    +0.023 C 
ATOM      3  CG2 VAL A   1      39.760 -34.196  33.883  0.00  0.00    +0.002 C 
ATOM      4  CG1 VAL A   1      40.579 -32.269  32.492  0.00  0.00    +0.002 C 
ENDBRANCH   1   2
BRANCH   1   5
ATOM      5  N   VAL A   1      40.059 -34.070  30.014  0.00  0.00    -0.239 NA
ATOM      6  H   VAL A   1      39.358 -33.318  29.857  0.00  0.00    +0.142 HD
ENDBRANCH   1   5
BRANCH   1   7
ATOM      7  C   VAL A   1      39.541 -35.896  31.443  0.00  0.00    +0.224 C 
ATOM      8  O   VAL A   1      38.317 -35.953  31.336  0.00  0.00    -0.287 OA
ENDBRANCH   1   7
TORSDOF 3
REMARK  Name = ../refined-set-2016/4y8x/4y8x_pocket.pdb
REMARK  247 active torsions:
REMARK  status: ('A' for Active; 'I' for Inactive)
REMARK    1  A    between atoms: _1  and  _5
REMARK    2  A    between atoms: _5  and  _6
REMARK    3  A    between atoms: _5  and  _8
REMARK    4  A    between atoms: _8  and  _9
REMARK    5  A    between atoms: _12  and  _14
REMARK    6  A    between atoms: _14  and  _15
REMARK    7  A    between atoms: _14  and  _17
REMARK    8  A    between atoms: _20  and  _22
REMARK    9  A    between atoms: _22  and  _23
REMARK   10  A    between atoms: _22  and  _25
REMARK   11  A    between atoms: _25  and  _26
REMARK   12  A    between atoms: _29  and  _31
REMARK   13  A    between atoms: _31  and  _32
REMARK   14  A    between atoms: _31  and  _34
REMARK   15  A    between atoms: _34  and  _35
REMARK   16  A    between atoms: _38  and  _40
REMARK   17  A    between atoms: _40  and  _41
REMARK   18  A    between atoms: _40  and  _43
REMARK   19  A    between atoms: _43  and  _44
REMARK   20  A    between atoms: _49  and  _51
REMARK   21  A    between atoms: _51  and  _52
REMARK   22  A    between atoms: _51  and  _54
REMARK   23  A    between atoms: _54  and  _55
REMARK   24  A    between atoms: _58  and  _60
REMARK   25  A    between atoms: _60  and  _61
REMARK   26  A    between atoms: _60  and  _63
REMARK   27  A    between atoms: _63  and  _64
REMARK   28  A    between atoms: _67  and  _69
REMARK   29  A    between atoms: _69  and  _70
REMARK   30  A    between atoms: _69  and  _72
REMARK   31  A    between atoms: _72  and  _73
REMARK   32  A    between atoms: _73  and  _74
REMARK   33  A    between atoms: _79  and  _81
REMARK   34  A    between atoms: _81  and  _82
REMARK   35  A    between atoms: _81  and  _84
REMARK   36  A    between atoms: _84  and  _85
REMARK   37  A    between atoms: _85  and  _86
REMARK   38  A    between atoms: _86  and  _87
REMARK   39  A    between atoms: _96  and  _98
REMARK   40  A    between atoms: _98  and  _99
REMARK   41  A    between atoms: _98  and  _101
REMARK   42  A    between atoms: _101  and  _102
REMARK   43  A    between atoms: _107  and  _109
REMARK   44  A    between atoms: _109  and  _110
REMARK   45  A    between atoms: _109  and  _112
REMARK   46  A    between atoms: _112  and  _113
REMARK   47  A    between atoms: _116  and  _118
REMARK   48  A    between atoms: _118  and  _119
REMARK   49  A    between atoms: _118  and  _121
REMARK   50  A    between atoms: _121  and  _122
REMARK   51  A    between atoms: _122  and  _157
REMARK   52  A    between atoms: _123  and  _125
REMARK   53  A    between atoms: _125  and  _126
REMARK   54  A    between atoms: _128  and  _130
REMARK   55  A    between atoms: _130  and  _131
REMARK   56  A    between atoms: _134  and  _136
REMARK   57  A    between atoms: _136  and  _137
REMARK   58  A    between atoms: _140  and  _142
REMARK   59  A    between atoms: _142  and  _143
REMARK   60  A    between atoms: _142  and  _145
REMARK   61  A    between atoms: _145  and  _146
REMARK   62  A    between atoms: _151  and  _153
REMARK   63  A    between atoms: _153  and  _154
REMARK   64  A    between atoms: _153  and  _156
REMARK   65  A    between atoms: _156  and  _157
REMARK   66  A    between atoms: _158  and  _160
REMARK   67  A    between atoms: _160  and  _161
REMARK   68  A    between atoms: _160  and  _163
REMARK   69  A    between atoms: _163  and  _164
REMARK   70  A    between atoms: _170  and  _172
REMARK   71  A    between atoms: _172  and  _173
REMARK   72  A    between atoms: _172  and  _175
REMARK   73  A    between atoms: _175  and  _176
REMARK   74  A    between atoms: _181  and  _182
REMARK   75  A    between atoms: _184  and  _186
REMARK   76  A    between atoms: _186  and  _187
REMARK   77  A    between atoms: _186  and  _189
REMARK   78  A    between atoms: _192  and  _194
REMARK   79  A    between atoms: _194  and  _195
REMARK   80  A    between atoms: _194  and  _197
REMARK   81  A    between atoms: _197  and  _198
REMARK   82  A    between atoms: _198  and  _199
REMARK   83  A    between atoms: _204  and  _206
REMARK   84  A    between atoms: _206  and  _207
REMARK   85  A    between atoms: _210  and  _212
REMARK   86  A    between atoms: _212  and  _213
REMARK   87  A    between atoms: _212  and  _215
REMARK   88  A    between atoms: _215  and  _216
REMARK   89  A    between atoms: _219  and  _221
REMARK   90  A    between atoms: _221  and  _222
REMARK   91  A    between atoms: _221  and  _224
REMARK   92  A    between atoms: _227  and  _229
REMARK   93  A    between atoms: _229  and  _230
REMARK   94  A    between atoms: _229  and  _232
REMARK   95  A    between atoms: _232  and  _233
REMARK   96  A    between atoms: _243  and  _245
REMARK   97  A    between atoms: _245  and  _246
REMARK   98  A    between atoms: _248  and  _250
REMARK   99  A    between atoms: _250  and  _251
REMARK  100  A    between atoms: _250  and  _253
REMARK  101  A    between atoms: _253  and  _254
REMARK  102  A    between atoms: _259  and  _260
REMARK  103  A    between atoms: _262  and  _264
REMARK  104  A    between atoms: _264  and  _265
REMARK  105  A    between atoms: _264  and  _267
REMARK  106  A    between atoms: _267  and  _268
REMARK  107  A    between atoms: _268  and  _269
REMARK  108  A    between atoms: _269  and  _270
REMARK  109  A    between atoms: _270  and  _271
REMARK  110  A    between atoms: _275  and  _277
REMARK  111  A    between atoms: _277  and  _278
REMARK  112  A    between atoms: _277  and  _280
REMARK  113  A    between atoms: _280  and  _281
REMARK  114  A    between atoms: _284  and  _286
REMARK  115  A    between atoms: _286  and  _287
REMARK  116  A    between atoms: _286  and  _289
REMARK  117  A    between atoms: _289  and  _290
REMARK  118  A    between atoms: _293  and  _295
REMARK  119  A    between atoms: _295  and  _296
REMARK  120  A    between atoms: _295  and  _298
REMARK  121  A    between atoms: _298  and  _299
REMARK  122  A    between atoms: _299  and  _300
REMARK  123  A    between atoms: _300  and  _301
REMARK  124  A    between atoms: _301  and  _302
REMARK  125  A    between atoms: _306  and  _308
REMARK  126  A    between atoms: _308  and  _309
REMARK  127  A    between atoms: _308  and  _311
REMARK  128  A    between atoms: _311  and  _312
REMARK  129  A    between atoms: _315  and  _317
REMARK  130  A    between atoms: _317  and  _318
REMARK  131  A    between atoms: _317  and  _320
REMARK  132  A    between atoms: _320  and  _321
REMARK  133  A    between atoms: _321  and  _322
REMARK  134  A    between atoms: _327  and  _329
REMARK  135  A    between atoms: _329  and  _330
REMARK  136  A    between atoms: _329  and  _332
REMARK  137  A    between atoms: _332  and  _333
REMARK  138  A    between atoms: _336  and  _338
REMARK  139  A    between atoms: _338  and  _339
REMARK  140  A    between atoms: _338  and  _341
REMARK  141  A    between atoms: _341  and  _342
REMARK  142  A    between atoms: _347  and  _348
REMARK  143  A    between atoms: _350  and  _352
REMARK  144  A    between atoms: _352  and  _353
REMARK  145  A    between atoms: _352  and  _355
REMARK  146  A    between atoms: _355  and  _356
REMARK  147  A    between atoms: _359  and  _361
REMARK  148  A    between atoms: _361  and  _362
REMARK  149  A    between atoms: _361  and  _364
REMARK  150  A    between atoms: _366  and  _368
REMARK  151  A    between atoms: _368  and  _369
REMARK  152  A    between atoms: _372  and  _374
REMARK  153  A    between atoms: _374  and  _375
REMARK  154  A    between atoms: _374  and  _377
REMARK  155  A    between atoms: _377  and  _378
REMARK  156  A    between atoms: _378  and  _379
REMARK  157  A    between atoms: _379  and  _380
REMARK  158  A    between atoms: _380  and  _381
REMARK  159  A    between atoms: _385  and  _387
REMARK  160  A    between atoms: _387  and  _388
REMARK  161  A    between atoms: _387  and  _390
REMARK  162  A    between atoms: _390  and  _391
REMARK  163  A    between atoms: _394  and  _396
REMARK  164  A    between atoms: _396  and  _397
REMARK  165  A    between atoms: _400  and  _402
REMARK  166  A    between atoms: _402  and  _403
REMARK  167  A    between atoms: _402  and  _405
REMARK  168  A    between atoms: _405  and  _406
REMARK  169  A    between atoms: _406  and  _520
REMARK  170  A    between atoms: _407  and  _409
REMARK  171  A    between atoms: _409  and  _410
REMARK  172  A    between atoms: _409  and  _412
REMARK  173  A    between atoms: _412  and  _413
REMARK  174  A    between atoms: _413  and  _414
REMARK  175  A    between atoms: _414  and  _415
REMARK  176  A    between atoms: _415  and  _416
REMARK  177  A    between atoms: _420  and  _422
REMARK  178  A    between atoms: _422  and  _423
REMARK  179  A    between atoms: _425  and  _427
REMARK  180  A    between atoms: _427  and  _428
REMARK  181  A    between atoms: _427  and  _430
REMARK  182  A    between atoms: _430  and  _431
REMARK  183  A    between atoms: _434  and  _436
REMARK  184  A    between atoms: _436  and  _437
REMARK  185  A    between atoms: _436  and  _439
REMARK  186  A    between atoms: _439  and  _440
REMARK  187  A    between atoms: _442  and  _444
REMARK  188  A    between atoms: _444  and  _445
REMARK  189  A    between atoms: _447  and  _449
REMARK  190  A    between atoms: _449  and  _450
REMARK  191  A    between atoms: _452  and  _454
REMARK  192  A    between atoms: _454  and  _455
REMARK  193  A    between atoms: _454  and  _457
REMARK  194  A    between atoms: _457  and  _458
REMARK  195  A    between atoms: _461  and  _463
REMARK  196  A    between atoms: _463  and  _464
REMARK  197  A    between atoms: _463  and  _466
REMARK  198  A    between atoms: _466  and  _467
REMARK  199  A    between atoms: _470  and  _472
REMARK  200  A    between atoms: _472  and  _473
REMARK  201  A    between atoms: _472  and  _475
REMARK  202  A    between atoms: _475  and  _476
REMARK  203  A    between atoms: _478  and  _480
REMARK  204  A    between atoms: _480  and  _481
REMARK  205  A    between atoms: _480  and  _483
REMARK  206  A    between atoms: _483  and  _484
REMARK  207  A    between atoms: _494  and  _496
REMARK  208  A    between atoms: _496  and  _497
REMARK  209  A    between atoms: _499  and  _501
REMARK  210  A    between atoms: _501  and  _502
REMARK  211  A    between atoms: _501  and  _504
REMARK  212  A    between atoms: _504  and  _505
REMARK  213  A    between atoms: _505  and  _506
REMARK  214  A    between atoms: _509  and  _511
REMARK  215  A    between atoms: _511  and  _512
REMARK  216  A    between atoms: _514  and  _516
REMARK  217  A    between atoms: _516  and  _517
REMARK  218  A    between atoms: _516  and  _519
REMARK  219  A    between atoms: _519  and  _520
REMARK  220  A    between atoms: _521  and  _523
REMARK  221  A    between atoms: _523  and  _524
REMARK  222  A    between atoms: _527  and  _529
REMARK  223  A    between atoms: _529  and  _530
REMARK  224  A    between atoms: _529  and  _532
REMARK  225  A    between atoms: _532  and  _533
REMARK  226  A    between atoms: _533  and  _534
REMARK  227  A    between atoms: _539  and  _541
REMARK  228  A    between atoms: _541  and  _542
REMARK  229  A    between atoms: _541  and  _544
REMARK  230  A    between atoms: _544  and  _545
REMARK  231  A    between atoms: _545  and  _546
REMARK  232  A    between atoms: _546  and  _547
REMARK  233  A    between atoms: _557  and  _558
REMARK  234  A    between atoms: _563  and  _565
REMARK  235  A    between atoms: _565  and  _566
REMARK  236  A    between atoms: _568  and  _570
REMARK  237  A    between atoms: _570  and  _571
REMARK  238  A    between atoms: _570  and  _573
REMARK  239  A    between atoms: _576  and  _578
REMARK  240  A    between atoms: _578  and  _579
REMARK  241  A    between atoms: _578  and  _581
REMARK  242  A    between atoms: _581  and  _582
REMARK  243  A    between atoms: _587  and  _588
REMARK  244  A    between atoms: _590  and  _592
REMARK  245  A    between atoms: _592  and  _593
REMARK  246  A    between atoms: _592  and  _595
REMARK  247  A    between atoms: _595  and  _596
REMARK                            x       y       z     vdW  Elec       q    Type
REMARK                         _______ _______ _______ _____ _____    ______ ____
ROOT
ATOM      1  CB  GLN A   1      49.310 -18.815  41.967  0.00  0.00    +0.035 C 
ENDROOT
BRANCH   1   2
ATOM      2  CA  GLN A   1      49.155 -18.816  43.488  0.00  0.00    +0.134 C 
BRANCH   2   3
ATOM      3  N   GLN A   1      48.794 -17.491  43.983  0.00  0.00    -0.239 NA
ATOM      4  H   GLN A   1      48.695 -16.708  43.306  0.00  0.00    +0.142 HD
ENDBRANCH   2   3
BRANCH   2   5
ATOM      5  C   GLN A   1      50.458 -19.328  44.166  0.00  0.00    +0.224 C 
ATOM      6  O   GLN A   1      50.622 -20.524  44.323  0.00  0.00    -0.287 OA
ENDBRANCH   2   5
ENDBRANCH   1   2
BRANCH   1   7
ATOM      7  CG  GLN A   1      47.984 -18.661  41.197  0.00  0.00    +0.087 C 
BRANCH   7   8
ATOM      8  CD  GLN A   1      47.115 -19.911  41.190  0.00  0.00    +0.219 C 
ATOM      9  OE1 GLN A   1      47.589 -21.046  41.319  0.00  0.00    -0.275 OA
ATOM     10  NE2 GLN A   1      45.824 -19.744  40.964  0.00  0.00    -0.329 N 
ATOM     11 HE21 GLN A   1      45.197 -20.571  40.893  0.00  0.00    +0.145 HD
ATOM     12 HE22 GLN A   1      45.435 -18.786  40.857  0.00  0.00    +0.145 HD
ENDBRANCH   7   8
ENDBRANCH   1   7
TORSDOF 5
REMARK  Name = ../refined-set-2016/4y8x/4y8x_pocket.pdb
REMARK  247 active torsions:
REMARK  status: ('A' for Active; 'I' for Inactive)
REMARK    1  A    between atoms: _1  and  _5
REMARK    2  A    between atoms: _5  and  _6
REMARK    3  A    between atoms: _5  and  _8
REMARK    4  A    between atoms: _8  and  _9
REMARK    5  A    between atoms: _12  and  _14
REMARK    6  A    between atoms: _14  and  _15
REMARK    7  A    between atoms: _14  and  _17
REMARK    8  A    between atoms: _20  and  _22
REMARK    9  A    between atoms: _22  and  _23
REMARK   10  A    between atoms: _22  and  _25
REMARK   11  A    between atoms: _25  and  _26
REMARK   12  A    between atoms: _29  and  _31
REMARK   13  A    between atoms: _31  and  _32
REMARK   14  A    between atoms: _31  and  _34
REMARK   15  A    between atoms: _34  and  _35
REMARK   16  A    between atoms: _38  and  _40
REMARK   17  A    between atoms: _40  and  _41
REMARK   18  A    between atoms: _40  and  _43
REMARK   19  A    between atoms: _43  and  _44
REMARK   20  A    between atoms: _49  and  _51
REMARK   21  A    between atoms: _51  and  _52
REMARK   22  A    between atoms: _51  and  _54
REMARK   23  A    between atoms: _54  and  _55
REMARK   24  A    between atoms: _58  and  _60
REMARK   25  A    between atoms: _60  and  _61
REMARK   26  A    between atoms: _60  and  _63
REMARK   27  A    between atoms: _63  and  _64
REMARK   28  A    between atoms: _67  and  _69
REMARK   29  A    between atoms: _69  and  _70
REMARK   30  A    between atoms: _69  and  _72
REMARK   31  A    between atoms: _72  and  _73
REMARK   32  A    between atoms: _73  and  _74
REMARK   33  A    between atoms: _79  and  _81
REMARK   34  A    between atoms: _81  and  _82
REMARK   35  A    between atoms: _81  and  _84
REMARK   36  A    between atoms: _84  and  _85
REMARK   37  A    between atoms: _85  and  _86
REMARK   38  A    between atoms: _86  and  _87
REMARK   39  A    between atoms: _96  and  _98
REMARK   40  A    between atoms: _98  and  _99
REMARK   41  A    between atoms: _98  and  _101
REMARK   42  A    between atoms: _101  and  _102
REMARK   43  A    between atoms: _107  and  _109
REMARK   44  A    between atoms: _109  and  _110
REMARK   45  A    between atoms: _109  and  _112
REMARK   46  A    between atoms: _112  and  _113
REMARK   47  A    between atoms: _116  and  _118
REMARK   48  A    between atoms: _118  and  _119
REMARK   49  A    between atoms: _118  and  _121
REMARK   50  A    between atoms: _121  and  _122
REMARK   51  A    between atoms: _122  and  _157
REMARK   52  A    between atoms: _123  and  _125
REMARK   53  A    between atoms: _125  and  _126
REMARK   54  A    between atoms: _128  and  _130
REMARK   55  A    between atoms: _130  and  _131
REMARK   56  A    between atoms: _134  and  _136
REMARK   57  A    between atoms: _136  and  _137
REMARK   58  A    between atoms: _140  and  _142
REMARK   59  A    between atoms: _142  and  _143
REMARK   60  A    between atoms: _142  and  _145
REMARK   61  A    between atoms: _145  and  _146
REMARK   62  A    between atoms: _151  and  _153
REMARK   63  A    between atoms: _153  and  _154
REMARK   64  A    between atoms: _153  and  _156
REMARK   65  A    between atoms: _156  and  _157
REMARK   66  A    between atoms: _158  and  _160
REMARK   67  A    between atoms: _160  and  _161
REMARK   68  A    between atoms: _160  and  _163
REMARK   69  A    between atoms: _163  and  _164
REMARK   70  A    between atoms: _170  and  _172
REMARK   71  A    between atoms: _172  and  _173
REMARK   72  A    between atoms: _172  and  _175
REMARK   73  A    between atoms: _175  and  _176
REMARK   74  A    between atoms: _181  and  _182
REMARK   75  A    between atoms: _184  and  _186
REMARK   76  A    between atoms: _186  and  _187
REMARK   77  A    between atoms: _186  and  _189
REMARK   78  A    between atoms: _192  and  _194
REMARK   79  A    between atoms: _194  and  _195
REMARK   80  A    between atoms: _194  and  _197
REMARK   81  A    between atoms: _197  and  _198
REMARK   82  A    between atoms: _198  and  _199
REMARK   83  A    between atoms: _204  and  _206
REMARK   84  A    between atoms: _206  and  _207
REMARK   85  A    between atoms: _210  and  _212
REMARK   86  A    between atoms: _212  and  _213
REMARK   87  A    between atoms: _212  and  _215
REMARK   88  A    between atoms: _215  and  _216
REMARK   89  A    between atoms: _219  and  _221
REMARK   90  A    between atoms: _221  and  _222
REMARK   91  A    between atoms: _221  and  _224
REMARK   92  A    between atoms: _227  and  _229
REMARK   93  A    between atoms: _229  and  _230
REMARK   94  A    between atoms: _229  and  _232
REMARK   95  A    between atoms: _232  and  _233
REMARK   96  A    between atoms: _243  and  _245
REMARK   97  A    between atoms: _245  and  _246
REMARK   98  A    between atoms: _248  and  _250
REMARK   99  A    between atoms: _250  and  _251
REMARK  100  A    between atoms: _250  and  _253
REMARK  101  A    between atoms: _253  and  _254
REMARK  102  A    between atoms: _259  and  _260
REMARK  103  A    between atoms: _262  and  _264
REMARK  104  A    between atoms: _264  and  _265
REMARK  105  A    between atoms: _264  and  _267
REMARK  106  A    between atoms: _267  and  _268
REMARK  107  A    between atoms: _268  and  _269
REMARK  108  A    between atoms: _269  and  _270
REMARK  109  A    between atoms: _270  and  _271
REMARK  110  A    between atoms: _275  and  _277
REMARK  111  A    between atoms: _277  and  _278
REMARK  112  A    between atoms: _277  and  _280
REMARK  113  A    between atoms: _280  and  _281
REMARK  114  A    between atoms: _284  and  _286
REMARK  115  A    between atoms: _286  and  _287
REMARK  116  A    between atoms: _286  and  _289
REMARK  117  A    between atoms: _289  and  _290
REMARK  118  A    between atoms: _293  and  _295
REMARK  119  A    between atoms: _295  and  _296
REMARK  120  A    between atoms: _295  and  _298
REMARK  121  A    between atoms: _298  and  _299
REMARK  122  A    between atoms: _299  and  _300
REMARK  123  A    between atoms: _300  and  _301
REMARK  124  A    between atoms: _301  and  _302
REMARK  125  A    between atoms: _306  and  _308
REMARK  126  A    between atoms: _308  and  _309
REMARK  127  A    between atoms: _308  and  _311
REMARK  128  A    between atoms: _311  and  _312
REMARK  129  A    between atoms: _315  and  _317
REMARK  130  A    between atoms: _317  and  _318
REMARK  131  A    between atoms: _317  and  _320
REMARK  132  A    between atoms: _320  and  _321
REMARK  133  A    between atoms: _321  and  _322
REMARK  134  A    between atoms: _327  and  _329
REMARK  135  A    between atoms: _329  and  _330
REMARK  136  A    between atoms: _329  and  _332
REMARK  137  A    between atoms: _332  and  _333
REMARK  138  A    between atoms: _336  and  _338
REMARK  139  A    between atoms: _338  and  _339
REMARK  140  A    between atoms: _338  and  _341
REMARK  141  A    between atoms: _341  and  _342
REMARK  142  A    between atoms: _347  and  _348
REMARK  143  A    between atoms: _350  and  _352
REMARK  144  A    between atoms: _352  and  _353
REMARK  145  A    between atoms: _352  and  _355
REMARK  146  A    between atoms: _355  and  _356
REMARK  147  A    between atoms: _359  and  _361
REMARK  148  A    between atoms: _361  and  _362
REMARK  149  A    between atoms: _361  and  _364
REMARK  150  A    between atoms: _366  and  _368
REMARK  151  A    between atoms: _368  and  _369
REMARK  152  A    between atoms: _372  and  _374
REMARK  153  A    between atoms: _374  and  _375
REMARK  154  A    between atoms: _374  and  _377
REMARK  155  A    between atoms: _377  and  _378
REMARK  156  A    between atoms: _378  and  _379
REMARK  157  A    between atoms: _379  and  _380
REMARK  158  A    between atoms: _380  and  _381
REMARK  159  A    between atoms: _385  and  _387
REMARK  160  A    between atoms: _387  and  _388
REMARK  161  A    between atoms: _387  and  _390
REMARK  162  A    between atoms: _390  and  _391
REMARK  163  A    between atoms: _394  and  _396
REMARK  164  A    between atoms: _396  and  _397
REMARK  165  A    between atoms: _400  and  _402
REMARK  166  A    between atoms: _402  and  _403
REMARK  167  A    between atoms: _402  and  _405
REMARK  168  A    between atoms: _405  and  _406
REMARK  169  A    between atoms: _406  and  _520
REMARK  170  A    between atoms: _407  and  _409
REMARK  171  A    between atoms: _409  and  _410
REMARK  172  A    between atoms: _409  and  _412
REMARK  173  A    between atoms: _412  and  _413
REMARK  174  A    between atoms: _413  and  _414
REMARK  175  A    between atoms: _414  and  _415
REMARK  176  A    between atoms: _415  and  _416
REMARK  177  A    between atoms: _420  and  _422
REMARK  178  A    between atoms: _422  and  _423
REMARK  179  A    between atoms: _425  and  _427
REMARK  180  A    between atoms: _427  and  _428
REMARK  181  A    between atoms: _427  and  _430
REMARK  182  A    between atoms: _430  and  _431
REMARK  183  A    between atoms: _434  and  _436
REMARK  184  A    between atoms: _436  and  _437
REMARK  185  A    between atoms: _436  and  _439
REMARK  186  A    between atoms: _439  and  _440
REMARK  187  A    between atoms: _442  and  _444
REMARK  188  A    between atoms: _444  and  _445
REMARK  189  A    between atoms: _447  and  _449
REMARK  190  A    between atoms: _449  and  _450
REMARK  191  A    between atoms: _452  and  _454
REMARK  192  A    between atoms: _454  and  _455
REMARK  193  A    between atoms: _454  and  _457
REMARK  194  A    between atoms: _457  and  _458
REMARK  195  A    between atoms: _461  and  _463
REMARK  196  A    between atoms: _463  and  _464
REMARK  197  A    between atoms: _463  and  _466
REMARK  198  A    between atoms: _466  and  _467
REMARK  199  A    between atoms: _470  and  _472
REMARK  200  A    between atoms: _472  and  _473
REMARK  201  A    between atoms: _472  and  _475
REMARK  202  A    between atoms: _475  and  _476
REMARK  203  A    between atoms: _478  and  _480
REMARK  204  A    between atoms: _480  and  _481
REMARK  205  A    between atoms: _480  and  _483
REMARK  206  A    between atoms: _483  and  _484
REMARK  207  A    between atoms: _494  and  _496
REMARK  208  A    between atoms: _496  and  _497
REMARK  209  A    between atoms: _499  and  _501
REMARK  210  A    between atoms: _501  and  _502
REMARK  211  A    between atoms: _501  and  _504
REMARK  212  A    between atoms: _504  and  _505
REMARK  213  A    between atoms: _505  and  _506
REMARK  214  A    between atoms: _509  and  _511
REMARK  215  A    between atoms: _511  and  _512
REMARK  216  A    between atoms: _514  and  _516
REMARK  217  A    between atoms: _516  and  _517
REMARK  218  A    between atoms: _516  and  _519
REMARK  219  A    between atoms: _519  and  _520
REMARK  220  A    between atoms: _521  and  _523
REMARK  221  A    between atoms: _523  and  _524
REMARK  222  A    between atoms: _527  and  _529
REMARK  223  A    between atoms: _529  and  _530
REMARK  224  A    between atoms: _529  and  _532
REMARK  225  A    between atoms: _532  and  _533
REMARK  226  A    between atoms: _533  and  _534
REMARK  227  A    between atoms: _539  and  _541
REMARK  228  A    between atoms: _541  and  _542
REMARK  229  A    between atoms: _541  and  _544
REMARK  230  A    between atoms: _544  and  _545
REMARK  231  A    between atoms: _545  and  _546
REMARK  232  A    between atoms: _546  and  _547
REMARK  233  A    between atoms: _557  and  _558
REMARK  234  A    between atoms: _563  and  _565
REMARK  235  A    between atoms: _565  and  _566
REMARK  236  A    between atoms: _568  and  _570
REMARK  237  A    between atoms: _570  and  _571
REMARK  238  A    between atoms: _570  and  _573
REMARK  239  A    between atoms: _576  and  _578
REMARK  240  A    between atoms: _578  and  _579
REMARK  241  A    between atoms: _578  and  _581
REMARK  242  A    between atoms: _581  and  _582
REMARK  243  A    between atoms: _587  and  _588
REMARK  244  A    between atoms: _590  and  _592
REMARK  245  A    between atoms: _592  and  _593
REMARK  246  A    between atoms: _592  and  _595
REMARK  247  A    between atoms: _595  and  _596
REMARK                            x       y       z     vdW  Elec       q    Type
REMARK                         _______ _______ _______ _____ _____    ______ ____
ROOT
ATOM      1  CA  ALA A   1      30.998 -23.095  25.407  0.00  0.00    +0.133 C 
ATOM      2  CB  ALA A   1      32.289 -22.378  25.836  0.00  0.00    +0.027 C 
ENDROOT
BRANCH   1   3
ATOM      3  N   ALA A   1      31.318 -24.349  24.703  0.00  0.00    -0.239 NA
ATOM      4  H   ALA A   1      32.313 -24.630  24.588  0.00  0.00    +0.142 HD
ENDBRANCH   1   3
BRANCH   1   5
ATOM      5  C   ALA A   1      30.106 -22.161  24.606  0.00  0.00    +0.224 C 
ATOM      6  O   ALA A   1      29.119 -21.634  25.125  0.00  0.00    -0.287 OA
ENDBRANCH   1   5
TORSDOF 2
REMARK  Name = ../refined-set-2016/4y8x/4y8x_pocket.pdb
REMARK  247 active torsions:
REMARK  status: ('A' for Active; 'I' for Inactive)
REMARK    1  A    between atoms: _1  and  _5
REMARK    2  A    between atoms: _5  and  _6
REMARK    3  A    between atoms: _5  and  _8
REMARK    4  A    between atoms: _8  and  _9
REMARK    5  A    between atoms: _12  and  _14
REMARK    6  A    between atoms: _14  and  _15
REMARK    7  A    between atoms: _14  and  _17
REMARK    8  A    between atoms: _20  and  _22
REMARK    9  A    between atoms: _22  and  _23
REMARK   10  A    between atoms: _22  and  _25
REMARK   11  A    between atoms: _25  and  _26
REMARK   12  A    between atoms: _29  and  _31
REMARK   13  A    between atoms: _31  and  _32
REMARK   14  A    between atoms: _31  and  _34
REMARK   15  A    between atoms: _34  and  _35
REMARK   16  A    between atoms: _38  and  _40
REMARK   17  A    between atoms: _40  and  _41
REMARK   18  A    between atoms: _40  and  _43
REMARK   19  A    between atoms: _43  and  _44
REMARK   20  A    between atoms: _49  and  _51
REMARK   21  A    between atoms: _51  and  _52
REMARK   22  A    between atoms: _51  and  _54
REMARK   23  A    between atoms: _54  and  _55
REMARK   24  A    between atoms: _58  and  _60
REMARK   25  A    between atoms: _60  and  _61
REMARK   26  A    between atoms: _60  and  _63
REMARK   27  A    between atoms: _63  and  _64
REMARK   28  A    between atoms: _67  and  _69
REMARK   29  A    between atoms: _69  and  _70
REMARK   30  A    between atoms: _69  and  _72
REMARK   31  A    between atoms: _72  and  _73
REMARK   32  A    between atoms: _73  and  _74
REMARK   33  A    between atoms: _79  and  _81
REMARK   34  A    between atoms: _81  and  _82
REMARK   35  A    between atoms: _81  and  _84
REMARK   36  A    between atoms: _84  and  _85
REMARK   37  A    between atoms: _85  and  _86
REMARK   38  A    between atoms: _86  and  _87
REMARK   39  A    between atoms: _96  and  _98
REMARK   40  A    between atoms: _98  and  _99
REMARK   41  A    between atoms: _98  and  _101
REMARK   42  A    between atoms: _101  and  _102
REMARK   43  A    between atoms: _107  and  _109
REMARK   44  A    between atoms: _109  and  _110
REMARK   45  A    between atoms: _109  and  _112
REMARK   46  A    between atoms: _112  and  _113
REMARK   47  A    between atoms: _116  and  _118
REMARK   48  A    between atoms: _118  and  _119
REMARK   49  A    between atoms: _118  and  _121
REMARK   50  A    between atoms: _121  and  _122
REMARK   51  A    between atoms: _122  and  _157
REMARK   52  A    between atoms: _123  and  _125
REMARK   53  A    between atoms: _125  and  _126
REMARK   54  A    between atoms: _128  and  _130
REMARK   55  A    between atoms: _130  and  _131
REMARK   56  A    between atoms: _134  and  _136
REMARK   57  A    between atoms: _136  and  _137
REMARK   58  A    between atoms: _140  and  _142
REMARK   59  A    between atoms: _142  and  _143
REMARK   60  A    between atoms: _142  and  _145
REMARK   61  A    between atoms: _145  and  _146
REMARK   62  A    between atoms: _151  and  _153
REMARK   63  A    between atoms: _153  and  _154
REMARK   64  A    between atoms: _153  and  _156
REMARK   65  A    between atoms: _156  and  _157
REMARK   66  A    between atoms: _158  and  _160
REMARK   67  A    between atoms: _160  and  _161
REMARK   68  A    between atoms: _160  and  _163
REMARK   69  A    between atoms: _163  and  _164
REMARK   70  A    between atoms: _170  and  _172
REMARK   71  A    between atoms: _172  and  _173
REMARK   72  A    between atoms: _172  and  _175
REMARK   73  A    between atoms: _175  and  _176
REMARK   74  A    between atoms: _181  and  _182
REMARK   75  A    between atoms: _184  and  _186
REMARK   76  A    between atoms: _186  and  _187
REMARK   77  A    between atoms: _186  and  _189
REMARK   78  A    between atoms: _192  and  _194
REMARK   79  A    between atoms: _194  and  _195
REMARK   80  A    between atoms: _194  and  _197
REMARK   81  A    between atoms: _197  and  _198
REMARK   82  A    between atoms: _198  and  _199
REMARK   83  A    between atoms: _204  and  _206
REMARK   84  A    between atoms: _206  and  _207
REMARK   85  A    between atoms: _210  and  _212
REMARK   86  A    between atoms: _212  and  _213
REMARK   87  A    between atoms: _212  and  _215
REMARK   88  A    between atoms: _215  and  _216
REMARK   89  A    between atoms: _219  and  _221
REMARK   90  A    between atoms: _221  and  _222
REMARK   91  A    between atoms: _221  and  _224
REMARK   92  A    between atoms: _227  and  _229
REMARK   93  A    between atoms: _229  and  _230
REMARK   94  A    between atoms: _229  and  _232
REMARK   95  A    between atoms: _232  and  _233
REMARK   96  A    between atoms: _243  and  _245
REMARK   97  A    between atoms: _245  and  _246
REMARK   98  A    between atoms: _248  and  _250
REMARK   99  A    between atoms: _250  and  _251
REMARK  100  A    between atoms: _250  and  _253
REMARK  101  A    between atoms: _253  and  _254
REMARK  102  A    between atoms: _259  and  _260
REMARK  103  A    between atoms: _262  and  _264
REMARK  104  A    between atoms: _264  and  _265
REMARK  105  A    between atoms: _264  and  _267
REMARK  106  A    between atoms: _267  and  _268
REMARK  107  A    between atoms: _268  and  _269
REMARK  108  A    between atoms: _269  and  _270
REMARK  109  A    between atoms: _270  and  _271
REMARK  110  A    between atoms: _275  and  _277
REMARK  111  A    between atoms: _277  and  _278
REMARK  112  A    between atoms: _277  and  _280
REMARK  113  A    between atoms: _280  and  _281
REMARK  114  A    between atoms: _284  and  _286
REMARK  115  A    between atoms: _286  and  _287
REMARK  116  A    between atoms: _286  and  _289
REMARK  117  A    between atoms: _289  and  _290
REMARK  118  A    between atoms: _293  and  _295
REMARK  119  A    between atoms: _295  and  _296
REMARK  120  A    between atoms: _295  and  _298
REMARK  121  A    between atoms: _298  and  _299
REMARK  122  A    between atoms: _299  and  _300
REMARK  123  A    between atoms: _300  and  _301
REMARK  124  A    between atoms: _301  and  _302
REMARK  125  A    between atoms: _306  and  _308
REMARK  126  A    between atoms: _308  and  _309
REMARK  127  A    between atoms: _308  and  _311
REMARK  128  A    between atoms: _311  and  _312
REMARK  129  A    between atoms: _315  and  _317
REMARK  130  A    between atoms: _317  and  _318
REMARK  131  A    between atoms: _317  and  _320
REMARK  132  A    between atoms: _320  and  _321
REMARK  133  A    between atoms: _321  and  _322
REMARK  134  A    between atoms: _327  and  _329
REMARK  135  A    between atoms: _329  and  _330
REMARK  136  A    between atoms: _329  and  _332
REMARK  137  A    between atoms: _332  and  _333
REMARK  138  A    between atoms: _336  and  _338
REMARK  139  A    between atoms: _338  and  _339
REMARK  140  A    between atoms: _338  and  _341
REMARK  141  A    between atoms: _341  and  _342
REMARK  142  A    between atoms: _347  and  _348
REMARK  143  A    between atoms: _350  and  _352
REMARK  144  A    between atoms: _352  and  _353
REMARK  145  A    between atoms: _352  and  _355
REMARK  146  A    between atoms: _355  and  _356
REMARK  147  A    between atoms: _359  and  _361
REMARK  148  A    between atoms: _361  and  _362
REMARK  149  A    between atoms: _361  and  _364
REMARK  150  A    between atoms: _366  and  _368
REMARK  151  A    between atoms: _368  and  _369
REMARK  152  A    between atoms: _372  and  _374
REMARK  153  A    between atoms: _374  and  _375
REMARK  154  A    between atoms: _374  and  _377
REMARK  155  A    between atoms: _377  and  _378
REMARK  156  A    between atoms: _378  and  _379
REMARK  157  A    between atoms: _379  and  _380
REMARK  158  A    between atoms: _380  and  _381
REMARK  159  A    between atoms: _385  and  _387
REMARK  160  A    between atoms: _387  and  _388
REMARK  161  A    between atoms: _387  and  _390
REMARK  162  A    between atoms: _390  and  _391
REMARK  163  A    between atoms: _394  and  _396
REMARK  164  A    between atoms: _396  and  _397
REMARK  165  A    between atoms: _400  and  _402
REMARK  166  A    between atoms: _402  and  _403
REMARK  167  A    between atoms: _402  and  _405
REMARK  168  A    between atoms: _405  and  _406
REMARK  169  A    between atoms: _406  and  _520
REMARK  170  A    between atoms: _407  and  _409
REMARK  171  A    between atoms: _409  and  _410
REMARK  172  A    between atoms: _409  and  _412
REMARK  173  A    between atoms: _412  and  _413
REMARK  174  A    between atoms: _413  and  _414
REMARK  175  A    between atoms: _414  and  _415
REMARK  176  A    between atoms: _415  and  _416
REMARK  177  A    between atoms: _420  and  _422
REMARK  178  A    between atoms: _422  and  _423
REMARK  179  A    between atoms: _425  and  _427
REMARK  180  A    between atoms: _427  and  _428
REMARK  181  A    between atoms: _427  and  _430
REMARK  182  A    between atoms: _430  and  _431
REMARK  183  A    between atoms: _434  and  _436
REMARK  184  A    between atoms: _436  and  _437
REMARK  185  A    between atoms: _436  and  _439
REMARK  186  A    between atoms: _439  and  _440
REMARK  187  A    between atoms: _442  and  _444
REMARK  188  A    between atoms: _444  and  _445
REMARK  189  A    between atoms: _447  and  _449
REMARK  190  A    between atoms: _449  and  _450
REMARK  191  A    between atoms: _452  and  _454
REMARK  192  A    between atoms: _454  and  _455
REMARK  193  A    between atoms: _454  and  _457
REMARK  194  A    between atoms: _457  and  _458
REMARK  195  A    between atoms: _461  and  _463
REMARK  196  A    between atoms: _463  and  _464
REMARK  197  A    between atoms: _463  and  _466
REMARK  198  A    between atoms: _466  and  _467
REMARK  199  A    between atoms: _470  and  _472
REMARK  200  A    between atoms: _472  and  _473
REMARK  201  A    between atoms: _472  and  _475
REMARK  202  A    between atoms: _475  and  _476
REMARK  203  A    between atoms: _478  and  _480
REMARK  204  A    between atoms: _480  and  _481
REMARK  205  A    between atoms: _480  and  _483
REMARK  206  A    between atoms: _483  and  _484
REMARK  207  A    between atoms: _494  and  _496
REMARK  208  A    between atoms: _496  and  _497
REMARK  209  A    between atoms: _499  and  _501
REMARK  210  A    between atoms: _501  and  _502
REMARK  211  A    between atoms: _501  and  _504
REMARK  212  A    between atoms: _504  and  _505
REMARK  213  A    between atoms: _505  and  _506
REMARK  214  A    between atoms: _509  and  _511
REMARK  215  A    between atoms: _511  and  _512
REMARK  216  A    between atoms: _514  and  _516
REMARK  217  A    between atoms: _516  and  _517
REMARK  218  A    between atoms: _516  and  _519
REMARK  219  A    between atoms: _519  and  _520
REMARK  220  A    between atoms: _521  and  _523
REMARK  221  A    between atoms: _523  and  _524
REMARK  222  A    between atoms: _527  and  _529
REMARK  223  A    between atoms: _529  and  _530
REMARK  224  A    between atoms: _529  and  _532
REMARK  225  A    between atoms: _532  and  _533
REMARK  226  A    between atoms: _533  and  _534
REMARK  227  A    between atoms: _539  and  _541
REMARK  228  A    between atoms: _541  and  _542
REMARK  229  A    between atoms: _541  and  _544
REMARK  230  A    between atoms: _544  and  _545
REMARK  231  A    between atoms: _545  and  _546
REMARK  232  A    between atoms: _546  and  _547
REMARK  233  A    between atoms: _557  and  _558
REMARK  234  A    between atoms: _563  and  _565
REMARK  235  A    between atoms: _565  and  _566
REMARK  236  A    between atoms: _568  and  _570
REMARK  237  A    between atoms: _570  and  _571
REMARK  238  A    between atoms: _570  and  _573
REMARK  239  A    between atoms: _576  and  _578
REMARK  240  A    between atoms: _578  and  _579
REMARK  241  A    between atoms: _578  and  _581
REMARK  242  A    between atoms: _581  and  _582
REMARK  243  A    between atoms: _587  and  _588
REMARK  244  A    between atoms: _590  and  _592
REMARK  245  A    between atoms: _592  and  _593
REMARK  246  A    between atoms: _592  and  _595
REMARK  247  A    between atoms: _595  and  _596
REMARK                            x       y       z     vdW  Elec       q    Type
REMARK                         _______ _______ _______ _____ _____    ______ ____
ROOT
ATOM      1  CA  ASP A   1      28.648 -24.546  29.944  0.00  0.00    +0.144 C 
ENDROOT
BRANCH   1   2
ATOM      2  N   ASP A   1      27.245 -24.470  29.520  0.00  0.00    -0.239 NA
ATOM      3  H   ASP A   1      26.840 -23.549  29.257  0.00  0.00    +0.142 HD
ENDBRANCH   1   2
BRANCH   1   4
ATOM      4  C   ASP A   1      28.696 -24.492  31.468  0.00  0.00    +0.225 C 
ATOM      5  O   ASP A   1      28.951 -23.454  32.084  0.00  0.00    -0.287 OA
ENDBRANCH   1   4
BRANCH   1   6
ATOM      6  CB  ASP A   1      29.469 -23.410  29.277  0.00  0.00    +0.139 C 
BRANCH   6   7
ATOM      7  CG  ASP A   1      30.957 -23.575  29.425  0.00  0.00    +0.367 C 
ATOM      8  OD2 ASP A   1      31.392 -24.655  29.849  0.00  0.00    -0.246 OA
ATOM      9  OD1 ASP A   1      31.690 -22.633  29.081  0.00  0.00    -0.246 OA
ENDBRANCH   6   7
ENDBRANCH   1   6
TORSDOF 4
REMARK  Name = ../refined-set-2016/4y8x/4y8x_pocket.pdb
REMARK  247 active torsions:
REMARK  status: ('A' for Active; 'I' for Inactive)
REMARK    1  A    between atoms: _1  and  _5
REMARK    2  A    between atoms: _5  and  _6
REMARK    3  A    between atoms: _5  and  _8
REMARK    4  A    between atoms: _8  and  _9
REMARK    5  A    between atoms: _12  and  _14
REMARK    6  A    between atoms: _14  and  _15
REMARK    7  A    between atoms: _14  and  _17
REMARK    8  A    between atoms: _20  and  _22
REMARK    9  A    between atoms: _22  and  _23
REMARK   10  A    between atoms: _22  and  _25
REMARK   11  A    between atoms: _25  and  _26
REMARK   12  A    between atoms: _29  and  _31
REMARK   13  A    between atoms: _31  and  _32
REMARK   14  A    between atoms: _31  and  _34
REMARK   15  A    between atoms: _34  and  _35
REMARK   16  A    between atoms: _38  and  _40
REMARK   17  A    between atoms: _40  and  _41
REMARK   18  A    between atoms: _40  and  _43
REMARK   19  A    between atoms: _43  and  _44
REMARK   20  A    between atoms: _49  and  _51
REMARK   21  A    between atoms: _51  and  _52
REMARK   22  A    between atoms: _51  and  _54
REMARK   23  A    between atoms: _54  and  _55
REMARK   24  A    between atoms: _58  and  _60
REMARK   25  A    between atoms: _60  and  _61
REMARK   26  A    between atoms: _60  and  _63
REMARK   27  A    between atoms: _63  and  _64
REMARK   28  A    between atoms: _67  and  _69
REMARK   29  A    between atoms: _69  and  _70
REMARK   30  A    between atoms: _69  and  _72
REMARK   31  A    between atoms: _72  and  _73
REMARK   32  A    between atoms: _73  and  _74
REMARK   33  A    between atoms: _79  and  _81
REMARK   34  A    between atoms: _81  and  _82
REMARK   35  A    between atoms: _81  and  _84
REMARK   36  A    between atoms: _84  and  _85
REMARK   37  A    between atoms: _85  and  _86
REMARK   38  A    between atoms: _86  and  _87
REMARK   39  A    between atoms: _96  and  _98
REMARK   40  A    between atoms: _98  and  _99
REMARK   41  A    between atoms: _98  and  _101
REMARK   42  A    between atoms: _101  and  _102
REMARK   43  A    between atoms: _107  and  _109
REMARK   44  A    between atoms: _109  and  _110
REMARK   45  A    between atoms: _109  and  _112
REMARK   46  A    between atoms: _112  and  _113
REMARK   47  A    between atoms: _116  and  _118
REMARK   48  A    between atoms: _118  and  _119
REMARK   49  A    between atoms: _118  and  _121
REMARK   50  A    between atoms: _121  and  _122
REMARK   51  A    between atoms: _122  and  _157
REMARK   52  A    between atoms: _123  and  _125
REMARK   53  A    between atoms: _125  and  _126
REMARK   54  A    between atoms: _128  and  _130
REMARK   55  A    between atoms: _130  and  _131
REMARK   56  A    between atoms: _134  and  _136
REMARK   57  A    between atoms: _136  and  _137
REMARK   58  A    between atoms: _140  and  _142
REMARK   59  A    between atoms: _142  and  _143
REMARK   60  A    between atoms: _142  and  _145
REMARK   61  A    between atoms: _145  and  _146
REMARK   62  A    between atoms: _151  and  _153
REMARK   63  A    between atoms: _153  and  _154
REMARK   64  A    between atoms: _153  and  _156
REMARK   65  A    between atoms: _156  and  _157
REMARK   66  A    between atoms: _158  and  _160
REMARK   67  A    between atoms: _160  and  _161
REMARK   68  A    between atoms: _160  and  _163
REMARK   69  A    between atoms: _163  and  _164
REMARK   70  A    between atoms: _170  and  _172
REMARK   71  A    between atoms: _172  and  _173
REMARK   72  A    between atoms: _172  and  _175
REMARK   73  A    between atoms: _175  and  _176
REMARK   74  A    between atoms: _181  and  _182
REMARK   75  A    between atoms: _184  and  _186
REMARK   76  A    between atoms: _186  and  _187
REMARK   77  A    between atoms: _186  and  _189
REMARK   78  A    between atoms: _192  and  _194
REMARK   79  A    between atoms: _194  and  _195
REMARK   80  A    between atoms: _194  and  _197
REMARK   81  A    between atoms: _197  and  _198
REMARK   82  A    between atoms: _198  and  _199
REMARK   83  A    between atoms: _204  and  _206
REMARK   84  A    between atoms: _206  and  _207
REMARK   85  A    between atoms: _210  and  _212
REMARK   86  A    between atoms: _212  and  _213
REMARK   87  A    between atoms: _212  and  _215
REMARK   88  A    between atoms: _215  and  _216
REMARK   89  A    between atoms: _219  and  _221
REMARK   90  A    between atoms: _221  and  _222
REMARK   91  A    between atoms: _221  and  _224
REMARK   92  A    between atoms: _227  and  _229
REMARK   93  A    between atoms: _229  and  _230
REMARK   94  A    between atoms: _229  and  _232
REMARK   95  A    between atoms: _232  and  _233
REMARK   96  A    between atoms: _243  and  _245
REMARK   97  A    between atoms: _245  and  _246
REMARK   98  A    between atoms: _248  and  _250
REMARK   99  A    between atoms: _250  and  _251
REMARK  100  A    between atoms: _250  and  _253
REMARK  101  A    between atoms: _253  and  _254
REMARK  102  A    between atoms: _259  and  _260
REMARK  103  A    between atoms: _262  and  _264
REMARK  104  A    between atoms: _264  and  _265
REMARK  105  A    between atoms: _264  and  _267
REMARK  106  A    between atoms: _267  and  _268
REMARK  107  A    between atoms: _268  and  _269
REMARK  108  A    between atoms: _269  and  _270
REMARK  109  A    between atoms: _270  and  _271
REMARK  110  A    between atoms: _275  and  _277
REMARK  111  A    between atoms: _277  and  _278
REMARK  112  A    between atoms: _277  and  _280
REMARK  113  A    between atoms: _280  and  _281
REMARK  114  A    between atoms: _284  and  _286
REMARK  115  A    between atoms: _286  and  _287
REMARK  116  A    between atoms: _286  and  _289
REMARK  117  A    between atoms: _289  and  _290
REMARK  118  A    between atoms: _293  and  _295
REMARK  119  A    between atoms: _295  and  _296
REMARK  120  A    between atoms: _295  and  _298
REMARK  121  A    between atoms: _298  and  _299
REMARK  122  A    between atoms: _299  and  _300
REMARK  123  A    between atoms: _300  and  _301
REMARK  124  A    between atoms: _301  and  _302
REMARK  125  A    between atoms: _306  and  _308
REMARK  126  A    between atoms: _308  and  _309
REMARK  127  A    between atoms: _308  and  _311
REMARK  128  A    between atoms: _311  and  _312
REMARK  129  A    between atoms: _315  and  _317
REMARK  130  A    between atoms: _317  and  _318
REMARK  131  A    between atoms: _317  and  _320
REMARK  132  A    between atoms: _320  and  _321
REMARK  133  A    between atoms: _321  and  _322
REMARK  134  A    between atoms: _327  and  _329
REMARK  135  A    between atoms: _329  and  _330
REMARK  136  A    between atoms: _329  and  _332
REMARK  137  A    between atoms: _332  and  _333
REMARK  138  A    between atoms: _336  and  _338
REMARK  139  A    between atoms: _338  and  _339
REMARK  140  A    between atoms: _338  and  _341
REMARK  141  A    between atoms: _341  and  _342
REMARK  142  A    between atoms: _347  and  _348
REMARK  143  A    between atoms: _350  and  _352
REMARK  144  A    between atoms: _352  and  _353
REMARK  145  A    between atoms: _352  and  _355
REMARK  146  A    between atoms: _355  and  _356
REMARK  147  A    between atoms: _359  and  _361
REMARK  148  A    between atoms: _361  and  _362
REMARK  149  A    between atoms: _361  and  _364
REMARK  150  A    between atoms: _366  and  _368
REMARK  151  A    between atoms: _368  and  _369
REMARK  152  A    between atoms: _372  and  _374
REMARK  153  A    between atoms: _374  and  _375
REMARK  154  A    between atoms: _374  and  _377
REMARK  155  A    between atoms: _377  and  _378
REMARK  156  A    between atoms: _378  and  _379
REMARK  157  A    between atoms: _379  and  _380
REMARK  158  A    between atoms: _380  and  _381
REMARK  159  A    between atoms: _385  and  _387
REMARK  160  A    between atoms: _387  and  _388
REMARK  161  A    between atoms: _387  and  _390
REMARK  162  A    between atoms: _390  and  _391
REMARK  163  A    between atoms: _394  and  _396
REMARK  164  A    between atoms: _396  and  _397
REMARK  165  A    between atoms: _400  and  _402
REMARK  166  A    between atoms: _402  and  _403
REMARK  167  A    between atoms: _402  and  _405
REMARK  168  A    between atoms: _405  and  _406
REMARK  169  A    between atoms: _406  and  _520
REMARK  170  A    between atoms: _407  and  _409
REMARK  171  A    between atoms: _409  and  _410
REMARK  172  A    between atoms: _409  and  _412
REMARK  173  A    between atoms: _412  and  _413
REMARK  174  A    between atoms: _413  and  _414
REMARK  175  A    between atoms: _414  and  _415
REMARK  176  A    between atoms: _415  and  _416
REMARK  177  A    between atoms: _420  and  _422
REMARK  178  A    between atoms: _422  and  _423
REMARK  179  A    between atoms: _425  and  _427
REMARK  180  A    between atoms: _427  and  _428
REMARK  181  A    between atoms: _427  and  _430
REMARK  182  A    between atoms: _430  and  _431
REMARK  183  A    between atoms: _434  and  _436
REMARK  184  A    between atoms: _436  and  _437
REMARK  185  A    between atoms: _436  and  _439
REMARK  186  A    between atoms: _439  and  _440
REMARK  187  A    between atoms: _442  and  _444
REMARK  188  A    between atoms: _444  and  _445
REMARK  189  A    between atoms: _447  and  _449
REMARK  190  A    between atoms: _449  and  _450
REMARK  191  A    between atoms: _452  and  _454
REMARK  192  A    between atoms: _454  and  _455
REMARK  193  A    between atoms: _454  and  _457
REMARK  194  A    between atoms: _457  and  _458
REMARK  195  A    between atoms: _461  and  _463
REMARK  196  A    between atoms: _463  and  _464
REMARK  197  A    between atoms: _463  and  _466
REMARK  198  A    between atoms: _466  and  _467
REMARK  199  A    between atoms: _470  and  _472
REMARK  200  A    between atoms: _472  and  _473
REMARK  201  A    between atoms: _472  and  _475
REMARK  202  A    between atoms: _475  and  _476
REMARK  203  A    between atoms: _478  and  _480
REMARK  204  A    between atoms: _480  and  _481
REMARK  205  A    between atoms: _480  and  _483
REMARK  206  A    between atoms: _483  and  _484
REMARK  207  A    between atoms: _494  and  _496
REMARK  208  A    between atoms: _496  and  _497
REMARK  209  A    between atoms: _499  and  _501
REMARK  210  A    between atoms: _501  and  _502
REMARK  211  A    between atoms: _501  and  _504
REMARK  212  A    between atoms: _504  and  _505
REMARK  213  A    between atoms: _505  and  _506
REMARK  214  A    between atoms: _509  and  _511
REMARK  215  A    between atoms: _511  and  _512
REMARK  216  A    between atoms: _514  and  _516
REMARK  217  A    between atoms: _516  and  _517
REMARK  218  A    between atoms: _516  and  _519
REMARK  219  A    between atoms: _519  and  _520
REMARK  220  A    between atoms: _521  and  _523
REMARK  221  A    between atoms: _523  and  _524
REMARK  222  A    between atoms: _527  and  _529
REMARK  223  A    between atoms: _529  and  _530
REMARK  224  A    between atoms: _529  and  _532
REMARK  225  A    between atoms: _532  and  _533
REMARK  226  A    between atoms: _533  and  _534
REMARK  227  A    between atoms: _539  and  _541
REMARK  228  A    between atoms: _541  and  _542
REMARK  229  A    between atoms: _541  and  _544
REMARK  230  A    between atoms: _544  and  _545
REMARK  231  A    between atoms: _545  and  _546
REMARK  232  A    between atoms: _546  and  _547
REMARK  233  A    between atoms: _557  and  _558
REMARK  234  A    between atoms: _563  and  _565
REMARK  235  A    between atoms: _565  and  _566
REMARK  236  A    between atoms: _568  and  _570
REMARK  237  A    between atoms: _570  and  _571
REMARK  238  A    between atoms: _570  and  _573
REMARK  239  A    between atoms: _576  and  _578
REMARK  240  A    between atoms: _578  and  _579
REMARK  241  A    between atoms: _578  and  _581
REMARK  242  A    between atoms: _581  and  _582
REMARK  243  A    between atoms: _587  and  _588
REMARK  244  A    between atoms: _590  and  _592
REMARK  245  A    between atoms: _592  and  _593
REMARK  246  A    between atoms: _592  and  _595
REMARK  247  A    between atoms: _595  and  _596
REMARK                            x       y       z     vdW  Elec       q    Type
REMARK                         _______ _______ _______ _____ _____    ______ ____
ROOT
ATOM      1  CA  VAL A   1      34.563 -10.874  37.645  0.00  0.00    +0.133 C 
ENDROOT
BRANCH   1   2
ATOM      2  CB  VAL A   1      34.552 -10.949  36.087  0.00  0.00    +0.023 C 
ATOM      3  CG2 VAL A   1      35.020 -12.332  35.607  0.00  0.00    +0.002 C 
ATOM      4  CG1 VAL A   1      35.374  -9.822  35.424  0.00  0.00    +0.002 C 
ENDBRANCH   1   2
BRANCH   1   5
ATOM      5  N   VAL A   1      33.956  -9.654  38.186  0.00  0.00    -0.239 NA
ATOM      6  H   VAL A   1      34.370  -8.738  37.919  0.00  0.00    +0.142 HD
ENDBRANCH   1   5
BRANCH   1   7
ATOM      7  C   VAL A   1      35.954 -11.003  38.293  0.00  0.00    +0.224 C 
ATOM      8  O   VAL A   1      36.675 -10.002  38.463  0.00  0.00    -0.287 OA
ENDBRANCH   1   7
TORSDOF 3
REMARK  Name = ../refined-set-2016/4y8x/4y8x_pocket.pdb
REMARK  247 active torsions:
REMARK  status: ('A' for Active; 'I' for Inactive)
REMARK    1  A    between atoms: _1  and  _5
REMARK    2  A    between atoms: _5  and  _6
REMARK    3  A    between atoms: _5  and  _8
REMARK    4  A    between atoms: _8  and  _9
REMARK    5  A    between atoms: _12  and  _14
REMARK    6  A    between atoms: _14  and  _15
REMARK    7  A    between atoms: _14  and  _17
REMARK    8  A    between atoms: _20  and  _22
REMARK    9  A    between atoms: _22  and  _23
REMARK   10  A    between atoms: _22  and  _25
REMARK   11  A    between atoms: _25  and  _26
REMARK   12  A    between atoms: _29  and  _31
REMARK   13  A    between atoms: _31  and  _32
REMARK   14  A    between atoms: _31  and  _34
REMARK   15  A    between atoms: _34  and  _35
REMARK   16  A    between atoms: _38  and  _40
REMARK   17  A    between atoms: _40  and  _41
REMARK   18  A    between atoms: _40  and  _43
REMARK   19  A    between atoms: _43  and  _44
REMARK   20  A    between atoms: _49  and  _51
REMARK   21  A    between atoms: _51  and  _52
REMARK   22  A    between atoms: _51  and  _54
REMARK   23  A    between atoms: _54  and  _55
REMARK   24  A    between atoms: _58  and  _60
REMARK   25  A    between atoms: _60  and  _61
REMARK   26  A    between atoms: _60  and  _63
REMARK   27  A    between atoms: _63  and  _64
REMARK   28  A    between atoms: _67  and  _69
REMARK   29  A    between atoms: _69  and  _70
REMARK   30  A    between atoms: _69  and  _72
REMARK   31  A    between atoms: _72  and  _73
REMARK   32  A    between atoms: _73  and  _74
REMARK   33  A    between atoms: _79  and  _81
REMARK   34  A    between atoms: _81  and  _82
REMARK   35  A    between atoms: _81  and  _84
REMARK   36  A    between atoms: _84  and  _85
REMARK   37  A    between atoms: _85  and  _86
REMARK   38  A    between atoms: _86  and  _87
REMARK   39  A    between atoms: _96  and  _98
REMARK   40  A    between atoms: _98  and  _99
REMARK   41  A    between atoms: _98  and  _101
REMARK   42  A    between atoms: _101  and  _102
REMARK   43  A    between atoms: _107  and  _109
REMARK   44  A    between atoms: _109  and  _110
REMARK   45  A    between atoms: _109  and  _112
REMARK   46  A    between atoms: _112  and  _113
REMARK   47  A    between atoms: _116  and  _118
REMARK   48  A    between atoms: _118  and  _119
REMARK   49  A    between atoms: _118  and  _121
REMARK   50  A    between atoms: _121  and  _122
REMARK   51  A    between atoms: _122  and  _157
REMARK   52  A    between atoms: _123  and  _125
REMARK   53  A    between atoms: _125  and  _126
REMARK   54  A    between atoms: _128  and  _130
REMARK   55  A    between atoms: _130  and  _131
REMARK   56  A    between atoms: _134  and  _136
REMARK   57  A    between atoms: _136  and  _137
REMARK   58  A    between atoms: _140  and  _142
REMARK   59  A    between atoms: _142  and  _143
REMARK   60  A    between atoms: _142  and  _145
REMARK   61  A    between atoms: _145  and  _146
REMARK   62  A    between atoms: _151  and  _153
REMARK   63  A    between atoms: _153  and  _154
REMARK   64  A    between atoms: _153  and  _156
REMARK   65  A    between atoms: _156  and  _157
REMARK   66  A    between atoms: _158  and  _160
REMARK   67  A    between atoms: _160  and  _161
REMARK   68  A    between atoms: _160  and  _163
REMARK   69  A    between atoms: _163  and  _164
REMARK   70  A    between atoms: _170  and  _172
REMARK   71  A    between atoms: _172  and  _173
REMARK   72  A    between atoms: _172  and  _175
REMARK   73  A    between atoms: _175  and  _176
REMARK   74  A    between atoms: _181  and  _182
REMARK   75  A    between atoms: _184  and  _186
REMARK   76  A    between atoms: _186  and  _187
REMARK   77  A    between atoms: _186  and  _189
REMARK   78  A    between atoms: _192  and  _194
REMARK   79  A    between atoms: _194  and  _195
REMARK   80  A    between atoms: _194  and  _197
REMARK   81  A    between atoms: _197  and  _198
REMARK   82  A    between atoms: _198  and  _199
REMARK   83  A    between atoms: _204  and  _206
REMARK   84  A    between atoms: _206  and  _207
REMARK   85  A    between atoms: _210  and  _212
REMARK   86  A    between atoms: _212  and  _213
REMARK   87  A    between atoms: _212  and  _215
REMARK   88  A    between atoms: _215  and  _216
REMARK   89  A    between atoms: _219  and  _221
REMARK   90  A    between atoms: _221  and  _222
REMARK   91  A    between atoms: _221  and  _224
REMARK   92  A    between atoms: _227  and  _229
REMARK   93  A    between atoms: _229  and  _230
REMARK   94  A    between atoms: _229  and  _232
REMARK   95  A    between atoms: _232  and  _233
REMARK   96  A    between atoms: _243  and  _245
REMARK   97  A    between atoms: _245  and  _246
REMARK   98  A    between atoms: _248  and  _250
REMARK   99  A    between atoms: _250  and  _251
REMARK  100  A    between atoms: _250  and  _253
REMARK  101  A    between atoms: _253  and  _254
REMARK  102  A    between atoms: _259  and  _260
REMARK  103  A    between atoms: _262  and  _264
REMARK  104  A    between atoms: _264  and  _265
REMARK  105  A    between atoms: _264  and  _267
REMARK  106  A    between atoms: _267  and  _268
REMARK  107  A    between atoms: _268  and  _269
REMARK  108  A    between atoms: _269  and  _270
REMARK  109  A    between atoms: _270  and  _271
REMARK  110  A    between atoms: _275  and  _277
REMARK  111  A    between atoms: _277  and  _278
REMARK  112  A    between atoms: _277  and  _280
REMARK  113  A    between atoms: _280  and  _281
REMARK  114  A    between atoms: _284  and  _286
REMARK  115  A    between atoms: _286  and  _287
REMARK  116  A    between atoms: _286  and  _289
REMARK  117  A    between atoms: _289  and  _290
REMARK  118  A    between atoms: _293  and  _295
REMARK  119  A    between atoms: _295  and  _296
REMARK  120  A    between atoms: _295  and  _298
REMARK  121  A    between atoms: _298  and  _299
REMARK  122  A    between atoms: _299  and  _300
REMARK  123  A    between atoms: _300  and  _301
REMARK  124  A    between atoms: _301  and  _302
REMARK  125  A    between atoms: _306  and  _308
REMARK  126  A    between atoms: _308  and  _309
REMARK  127  A    between atoms: _308  and  _311
REMARK  128  A    between atoms: _311  and  _312
REMARK  129  A    between atoms: _315  and  _317
REMARK  130  A    between atoms: _317  and  _318
REMARK  131  A    between atoms: _317  and  _320
REMARK  132  A    between atoms: _320  and  _321
REMARK  133  A    between atoms: _321  and  _322
REMARK  134  A    between atoms: _327  and  _329
REMARK  135  A    between atoms: _329  and  _330
REMARK  136  A    between atoms: _329  and  _332
REMARK  137  A    between atoms: _332  and  _333
REMARK  138  A    between atoms: _336  and  _338
REMARK  139  A    between atoms: _338  and  _339
REMARK  140  A    between atoms: _338  and  _341
REMARK  141  A    between atoms: _341  and  _342
REMARK  142  A    between atoms: _347  and  _348
REMARK  143  A    between atoms: _350  and  _352
REMARK  144  A    between atoms: _352  and  _353
REMARK  145  A    between atoms: _352  and  _355
REMARK  146  A    between atoms: _355  and  _356
REMARK  147  A    between atoms: _359  and  _361
REMARK  148  A    between atoms: _361  and  _362
REMARK  149  A    between atoms: _361  and  _364
REMARK  150  A    between atoms: _366  and  _368
REMARK  151  A    between atoms: _368  and  _369
REMARK  152  A    between atoms: _372  and  _374
REMARK  153  A    between atoms: _374  and  _375
REMARK  154  A    between atoms: _374  and  _377
REMARK  155  A    between atoms: _377  and  _378
REMARK  156  A    between atoms: _378  and  _379
REMARK  157  A    between atoms: _379  and  _380
REMARK  158  A    between atoms: _380  and  _381
REMARK  159  A    between atoms: _385  and  _387
REMARK  160  A    between atoms: _387  and  _388
REMARK  161  A    between atoms: _387  and  _390
REMARK  162  A    between atoms: _390  and  _391
REMARK  163  A    between atoms: _394  and  _396
REMARK  164  A    between atoms: _396  and  _397
REMARK  165  A    between atoms: _400  and  _402
REMARK  166  A    between atoms: _402  and  _403
REMARK  167  A    between atoms: _402  and  _405
REMARK  168  A    between atoms: _405  and  _406
REMARK  169  A    between atoms: _406  and  _520
REMARK  170  A    between atoms: _407  and  _409
REMARK  171  A    between atoms: _409  and  _410
REMARK  172  A    between atoms: _409  and  _412
REMARK  173  A    between atoms: _412  and  _413
REMARK  174  A    between atoms: _413  and  _414
REMARK  175  A    between atoms: _414  and  _415
REMARK  176  A    between atoms: _415  and  _416
REMARK  177  A    between atoms: _420  and  _422
REMARK  178  A    between atoms: _422  and  _423
REMARK  179  A    between atoms: _425  and  _427
REMARK  180  A    between atoms: _427  and  _428
REMARK  181  A    between atoms: _427  and  _430
REMARK  182  A    between atoms: _430  and  _431
REMARK  183  A    between atoms: _434  and  _436
REMARK  184  A    between atoms: _436  and  _437
REMARK  185  A    between atoms: _436  and  _439
REMARK  186  A    between atoms: _439  and  _440
REMARK  187  A    between atoms: _442  and  _444
REMARK  188  A    between atoms: _444  and  _445
REMARK  189  A    between atoms: _447  and  _449
REMARK  190  A    between atoms: _449  and  _450
REMARK  191  A    between atoms: _452  and  _454
REMARK  192  A    between atoms: _454  and  _455
REMARK  193  A    between atoms: _454  and  _457
REMARK  194  A    between atoms: _457  and  _458
REMARK  195  A    between atoms: _461  and  _463
REMARK  196  A    between atoms: _463  and  _464
REMARK  197  A    between atoms: _463  and  _466
REMARK  198  A    between atoms: _466  and  _467
REMARK  199  A    between atoms: _470  and  _472
REMARK  200  A    between atoms: _472  and  _473
REMARK  201  A    between atoms: _472  and  _475
REMARK  202  A    between atoms: _475  and  _476
REMARK  203  A    between atoms: _478  and  _480
REMARK  204  A    between atoms: _480  and  _481
REMARK  205  A    between atoms: _480  and  _483
REMARK  206  A    between atoms: _483  and  _484
REMARK  207  A    between atoms: _494  and  _496
REMARK  208  A    between atoms: _496  and  _497
REMARK  209  A    between atoms: _499  and  _501
REMARK  210  A    between atoms: _501  and  _502
REMARK  211  A    between atoms: _501  and  _504
REMARK  212  A    between atoms: _504  and  _505
REMARK  213  A    between atoms: _505  and  _506
REMARK  214  A    between atoms: _509  and  _511
REMARK  215  A    between atoms: _511  and  _512
REMARK  216  A    between atoms: _514  and  _516
REMARK  217  A    between atoms: _516  and  _517
REMARK  218  A    between atoms: _516  and  _519
REMARK  219  A    between atoms: _519  and  _520
REMARK  220  A    between atoms: _521  and  _523
REMARK  221  A    between atoms: _523  and  _524
REMARK  222  A    between atoms: _527  and  _529
REMARK  223  A    between atoms: _529  and  _530
REMARK  224  A    between atoms: _529  and  _532
REMARK  225  A    between atoms: _532  and  _533
REMARK  226  A    between atoms: _533  and  _534
REMARK  227  A    between atoms: _539  and  _541
REMARK  228  A    between atoms: _541  and  _542
REMARK  229  A    between atoms: _541  and  _544
REMARK  230  A    between atoms: _544  and  _545
REMARK  231  A    between atoms: _545  and  _546
REMARK  232  A    between atoms: _546  and  _547
REMARK  233  A    between atoms: _557  and  _558
REMARK  234  A    between atoms: _563  and  _565
REMARK  235  A    between atoms: _565  and  _566
REMARK  236  A    between atoms: _568  and  _570
REMARK  237  A    between atoms: _570  and  _571
REMARK  238  A    between atoms: _570  and  _573
REMARK  239  A    between atoms: _576  and  _578
REMARK  240  A    between atoms: _578  and  _579
REMARK  241  A    between atoms: _578  and  _581
REMARK  242  A    between atoms: _581  and  _582
REMARK  243  A    between atoms: _587  and  _588
REMARK  244  A    between atoms: _590  and  _592
REMARK  245  A    between atoms: _592  and  _593
REMARK  246  A    between atoms: _592  and  _595
REMARK  247  A    between atoms: _595  and  _596
REMARK                            x       y       z     vdW  Elec       q    Type
REMARK                         _______ _______ _______ _____ _____    ______ ____
ROOT
ATOM      1  C   TRP A   1      44.521 -15.497  36.616  0.00  0.00    +0.239 C 
ATOM      2  O   TRP A   1      45.691 -15.739  36.302  0.00  0.00    -0.274 OA
ATOM      3  N   GLY A   2      43.573 -15.245  35.727  0.00  0.00    -0.296 N 
ATOM      4  H   GLY A   2      42.617 -15.015  36.065  0.00  0.00    +0.150 HD
ENDROOT
BRANCH   1   5
ATOM      5  CA  TRP A   1      44.085 -15.502  38.084  0.00  0.00    +0.149 C 
BRANCH   5   6
ATOM      6  N   TRP A   1      42.619 -15.588  38.230  0.00  0.00    -0.238 NA
ATOM      7  H   TRP A   1      42.161 -16.515  38.117  0.00  0.00    +0.142 HD
ENDBRANCH   5   6
BRANCH   5   8
ATOM      8  CB  TRP A   1      44.717 -16.699  38.784  0.00  0.00    +0.054 C 
BRANCH   8   9
ATOM      9  CG  TRP A   1      44.631 -16.635  40.283  0.00  0.00    -0.002 A 
ATOM     10  CD1 TRP A   1      45.542 -16.072  41.135  0.00  0.00    +0.068 A 
ATOM     11  NE1 TRP A   1      45.127 -16.236  42.443  0.00  0.00    -0.352 N 
ATOM     12  HE1 TRP A   1      45.627 -15.882  43.284  0.00  0.00    +0.166 HD
ATOM     13  CE2 TRP A   1      43.948 -16.941  42.455  0.00  0.00    +0.056 A 
ATOM     14  CZ2 TRP A   1      43.165 -17.389  43.540  0.00  0.00    +0.017 A 
ATOM     15  CH2 TRP A   1      42.024 -18.105  43.247  0.00  0.00    +0.001 A 
ATOM     16  CZ3 TRP A   1      41.654 -18.385  41.918  0.00  0.00    +0.000 A 
ATOM     17  CE3 TRP A   1      42.451 -17.976  40.839  0.00  0.00    +0.001 A 
ATOM     18  CD2 TRP A   1      43.633 -17.256  41.109  0.00  0.00    +0.013 A 
ENDBRANCH   8   9
ENDBRANCH   5   8
ENDBRANCH   1   5
BRANCH   3  19
ATOM     19  CA  GLY A   2      43.821 -15.279  34.296  0.00  0.00    +0.176 C 
BRANCH  19  20
ATOM     20  C   GLY A   2      44.721 -14.168  33.785  0.00  0.00    +0.243 C 
ATOM     21  O   GLY A   2      45.133 -13.268  34.524  0.00  0.00    -0.273 OA
ATOM     22  N   TYR A   3      45.023 -14.256  32.501  0.00  0.00    -0.298 N 
ATOM     23  H   TYR A   3      44.624 -15.065  31.983  0.00  0.00    +0.150 HD
BRANCH  22  24
ATOM     24  CA  TYR A   3      45.859 -13.335  31.735  0.00  0.00    +0.141 C 
BRANCH  24  25
ATOM     25  C   TYR A   3      45.319 -11.919  31.815  0.00  0.00    +0.227 C 
ATOM     26  O   TYR A   3      44.117 -11.721  31.952  0.00  0.00    -0.286 OA
ENDBRANCH  24  25
BRANCH  24  27
ATOM     27  CB  TYR A   3      45.833 -13.765  30.252  0.00  0.00    +0.054 C 
BRANCH  27  28
ATOM     28  CG  TYR A   3      46.579 -15.024  29.865  0.00  0.00    -0.020 A 
ATOM     29  CD2 TYR A   3      46.941 -15.974  30.818  0.00  0.00    -0.001 A 
ATOM     30  CE2 TYR A   3      47.585 -17.159  30.451  0.00  0.00    +0.036 A 
ATOM     31  CZ  TYR A   3      47.879 -17.392  29.114  0.00  0.00    +0.134 A 
ATOM     32  CE1 TYR A   3      47.515 -16.470  28.153  0.00  0.00    +0.036 A 
ATOM     33  CD1 TYR A   3      46.900 -15.281  28.532  0.00  0.00    -0.001 A 
BRANCH  31  34
ATOM     34  OH  TYR A   3      48.520 -18.533  28.711  0.00  0.00    -0.506 OA
ATOM     35  HH  TYR A   3      47.938 -19.033  28.085  0.00  0.00    +0.292 HD
ENDBRANCH  31  34
ENDBRANCH  27  28
ENDBRANCH  24  27
ENDBRANCH  22  24
ENDBRANCH  19  20
ENDBRANCH   3  19
TORSDOF 11
REMARK  Name = ../refined-set-2016/4y8x/4y8x_pocket.pdb
REMARK  247 active torsions:
REMARK  status: ('A' for Active; 'I' for Inactive)
REMARK    1  A    between atoms: _1  and  _5
REMARK    2  A    between atoms: _5  and  _6
REMARK    3  A    between atoms: _5  and  _8
REMARK    4  A    between atoms: _8  and  _9
REMARK    5  A    between atoms: _12  and  _14
REMARK    6  A    between atoms: _14  and  _15
REMARK    7  A    between atoms: _14  and  _17
REMARK    8  A    between atoms: _20  and  _22
REMARK    9  A    between atoms: _22  and  _23
REMARK   10  A    between atoms: _22  and  _25
REMARK   11  A    between atoms: _25  and  _26
REMARK   12  A    between atoms: _29  and  _31
REMARK   13  A    between atoms: _31  and  _32
REMARK   14  A    between atoms: _31  and  _34
REMARK   15  A    between atoms: _34  and  _35
REMARK   16  A    between atoms: _38  and  _40
REMARK   17  A    between atoms: _40  and  _41
REMARK   18  A    between atoms: _40  and  _43
REMARK   19  A    between atoms: _43  and  _44
REMARK   20  A    between atoms: _49  and  _51
REMARK   21  A    between atoms: _51  and  _52
REMARK   22  A    between atoms: _51  and  _54
REMARK   23  A    between atoms: _54  and  _55
REMARK   24  A    between atoms: _58  and  _60
REMARK   25  A    between atoms: _60  and  _61
REMARK   26  A    between atoms: _60  and  _63
REMARK   27  A    between atoms: _63  and  _64
REMARK   28  A    between atoms: _67  and  _69
REMARK   29  A    between atoms: _69  and  _70
REMARK   30  A    between atoms: _69  and  _72
REMARK   31  A    between atoms: _72  and  _73
REMARK   32  A    between atoms: _73  and  _74
REMARK   33  A    between atoms: _79  and  _81
REMARK   34  A    between atoms: _81  and  _82
REMARK   35  A    between atoms: _81  and  _84
REMARK   36  A    between atoms: _84  and  _85
REMARK   37  A    between atoms: _85  and  _86
REMARK   38  A    between atoms: _86  and  _87
REMARK   39  A    between atoms: _96  and  _98
REMARK   40  A    between atoms: _98  and  _99
REMARK   41  A    between atoms: _98  and  _101
REMARK   42  A    between atoms: _101  and  _102
REMARK   43  A    between atoms: _107  and  _109
REMARK   44  A    between atoms: _109  and  _110
REMARK   45  A    between atoms: _109  and  _112
REMARK   46  A    between atoms: _112  and  _113
REMARK   47  A    between atoms: _116  and  _118
REMARK   48  A    between atoms: _118  and  _119
REMARK   49  A    between atoms: _118  and  _121
REMARK   50  A    between atoms: _121  and  _122
REMARK   51  A    between atoms: _122  and  _157
REMARK   52  A    between atoms: _123  and  _125
REMARK   53  A    between atoms: _125  and  _126
REMARK   54  A    between atoms: _128  and  _130
REMARK   55  A    between atoms: _130  and  _131
REMARK   56  A    between atoms: _134  and  _136
REMARK   57  A    between atoms: _136  and  _137
REMARK   58  A    between atoms: _140  and  _142
REMARK   59  A    between atoms: _142  and  _143
REMARK   60  A    between atoms: _142  and  _145
REMARK   61  A    between atoms: _145  and  _146
REMARK   62  A    between atoms: _151  and  _153
REMARK   63  A    between atoms: _153  and  _154
REMARK   64  A    between atoms: _153  and  _156
REMARK   65  A    between atoms: _156  and  _157
REMARK   66  A    between atoms: _158  and  _160
REMARK   67  A    between atoms: _160  and  _161
REMARK   68  A    between atoms: _160  and  _163
REMARK   69  A    between atoms: _163  and  _164
REMARK   70  A    between atoms: _170  and  _172
REMARK   71  A    between atoms: _172  and  _173
REMARK   72  A    between atoms: _172  and  _175
REMARK   73  A    between atoms: _175  and  _176
REMARK   74  A    between atoms: _181  and  _182
REMARK   75  A    between atoms: _184  and  _186
REMARK   76  A    between atoms: _186  and  _187
REMARK   77  A    between atoms: _186  and  _189
REMARK   78  A    between atoms: _192  and  _194
REMARK   79  A    between atoms: _194  and  _195
REMARK   80  A    between atoms: _194  and  _197
REMARK   81  A    between atoms: _197  and  _198
REMARK   82  A    between atoms: _198  and  _199
REMARK   83  A    between atoms: _204  and  _206
REMARK   84  A    between atoms: _206  and  _207
REMARK   85  A    between atoms: _210  and  _212
REMARK   86  A    between atoms: _212  and  _213
REMARK   87  A    between atoms: _212  and  _215
REMARK   88  A    between atoms: _215  and  _216
REMARK   89  A    between atoms: _219  and  _221
REMARK   90  A    between atoms: _221  and  _222
REMARK   91  A    between atoms: _221  and  _224
REMARK   92  A    between atoms: _227  and  _229
REMARK   93  A    between atoms: _229  and  _230
REMARK   94  A    between atoms: _229  and  _232
REMARK   95  A    between atoms: _232  and  _233
REMARK   96  A    between atoms: _243  and  _245
REMARK   97  A    between atoms: _245  and  _246
REMARK   98  A    between atoms: _248  and  _250
REMARK   99  A    between atoms: _250  and  _251
REMARK  100  A    between atoms: _250  and  _253
REMARK  101  A    between atoms: _253  and  _254
REMARK  102  A    between atoms: _259  and  _260
REMARK  103  A    between atoms: _262  and  _264
REMARK  104  A    between atoms: _264  and  _265
REMARK  105  A    between atoms: _264  and  _267
REMARK  106  A    between atoms: _267  and  _268
REMARK  107  A    between atoms: _268  and  _269
REMARK  108  A    between atoms: _269  and  _270
REMARK  109  A    between atoms: _270  and  _271
REMARK  110  A    between atoms: _275  and  _277
REMARK  111  A    between atoms: _277  and  _278
REMARK  112  A    between atoms: _277  and  _280
REMARK  113  A    between atoms: _280  and  _281
REMARK  114  A    between atoms: _284  and  _286
REMARK  115  A    between atoms: _286  and  _287
REMARK  116  A    between atoms: _286  and  _289
REMARK  117  A    between atoms: _289  and  _290
REMARK  118  A    between atoms: _293  and  _295
REMARK  119  A    between atoms: _295  and  _296
REMARK  120  A    between atoms: _295  and  _298
REMARK  121  A    between atoms: _298  and  _299
REMARK  122  A    between atoms: _299  and  _300
REMARK  123  A    between atoms: _300  and  _301
REMARK  124  A    between atoms: _301  and  _302
REMARK  125  A    between atoms: _306  and  _308
REMARK  126  A    between atoms: _308  and  _309
REMARK  127  A    between atoms: _308  and  _311
REMARK  128  A    between atoms: _311  and  _312
REMARK  129  A    between atoms: _315  and  _317
REMARK  130  A    between atoms: _317  and  _318
REMARK  131  A    between atoms: _317  and  _320
REMARK  132  A    between atoms: _320  and  _321
REMARK  133  A    between atoms: _321  and  _322
REMARK  134  A    between atoms: _327  and  _329
REMARK  135  A    between atoms: _329  and  _330
REMARK  136  A    between atoms: _329  and  _332
REMARK  137  A    between atoms: _332  and  _333
REMARK  138  A    between atoms: _336  and  _338
REMARK  139  A    between atoms: _338  and  _339
REMARK  140  A    between atoms: _338  and  _341
REMARK  141  A    between atoms: _341  and  _342
REMARK  142  A    between atoms: _347  and  _348
REMARK  143  A    between atoms: _350  and  _352
REMARK  144  A    between atoms: _352  and  _353
REMARK  145  A    between atoms: _352  and  _355
REMARK  146  A    between atoms: _355  and  _356
REMARK  147  A    between atoms: _359  and  _361
REMARK  148  A    between atoms: _361  and  _362
REMARK  149  A    between atoms: _361  and  _364
REMARK  150  A    between atoms: _366  and  _368
REMARK  151  A    between atoms: _368  and  _369
REMARK  152  A    between atoms: _372  and  _374
REMARK  153  A    between atoms: _374  and  _375
REMARK  154  A    between atoms: _374  and  _377
REMARK  155  A    between atoms: _377  and  _378
REMARK  156  A    between atoms: _378  and  _379
REMARK  157  A    between atoms: _379  and  _380
REMARK  158  A    between atoms: _380  and  _381
REMARK  159  A    between atoms: _385  and  _387
REMARK  160  A    between atoms: _387  and  _388
REMARK  161  A    between atoms: _387  and  _390
REMARK  162  A    between atoms: _390  and  _391
REMARK  163  A    between atoms: _394  and  _396
REMARK  164  A    between atoms: _396  and  _397
REMARK  165  A    between atoms: _400  and  _402
REMARK  166  A    between atoms: _402  and  _403
REMARK  167  A    between atoms: _402  and  _405
REMARK  168  A    between atoms: _405  and  _406
REMARK  169  A    between atoms: _406  and  _520
REMARK  170  A    between atoms: _407  and  _409
REMARK  171  A    between atoms: _409  and  _410
REMARK  172  A    between atoms: _409  and  _412
REMARK  173  A    between atoms: _412  and  _413
REMARK  174  A    between atoms: _413  and  _414
REMARK  175  A    between atoms: _414  and  _415
REMARK  176  A    between atoms: _415  and  _416
REMARK  177  A    between atoms: _420  and  _422
REMARK  178  A    between atoms: _422  and  _423
REMARK  179  A    between atoms: _425  and  _427
REMARK  180  A    between atoms: _427  and  _428
REMARK  181  A    between atoms: _427  and  _430
REMARK  182  A    between atoms: _430  and  _431
REMARK  183  A    between atoms: _434  and  _436
REMARK  184  A    between atoms: _436  and  _437
REMARK  185  A    between atoms: _436  and  _439
REMARK  186  A    between atoms: _439  and  _440
REMARK  187  A    between atoms: _442  and  _444
REMARK  188  A    between atoms: _444  and  _445
REMARK  189  A    between atoms: _447  and  _449
REMARK  190  A    between atoms: _449  and  _450
REMARK  191  A    between atoms: _452  and  _454
REMARK  192  A    between atoms: _454  and  _455
REMARK  193  A    between atoms: _454  and  _457
REMARK  194  A    between atoms: _457  and  _458
REMARK  195  A    between atoms: _461  and  _463
REMARK  196  A    between atoms: _463  and  _464
REMARK  197  A    between atoms: _463  and  _466
REMARK  198  A    between atoms: _466  and  _467
REMARK  199  A    between atoms: _470  and  _472
REMARK  200  A    between atoms: _472  and  _473
REMARK  201  A    between atoms: _472  and  _475
REMARK  202  A    between atoms: _475  and  _476
REMARK  203  A    between atoms: _478  and  _480
REMARK  204  A    between atoms: _480  and  _481
REMARK  205  A    between atoms: _480  and  _483
REMARK  206  A    between atoms: _483  and  _484
REMARK  207  A    between atoms: _494  and  _496
REMARK  208  A    between atoms: _496  and  _497
REMARK  209  A    between atoms: _499  and  _501
REMARK  210  A    between atoms: _501  and  _502
REMARK  211  A    between atoms: _501  and  _504
REMARK  212  A    between atoms: _504  and  _505
REMARK  213  A    between atoms: _505  and  _506
REMARK  214  A    between atoms: _509  and  _511
REMARK  215  A    between atoms: _511  and  _512
REMARK  216  A    between atoms: _514  and  _516
REMARK  217  A    between atoms: _516  and  _517
REMARK  218  A    between atoms: _516  and  _519
REMARK  219  A    between atoms: _519  and  _520
REMARK  220  A    between atoms: _521  and  _523
REMARK  221  A    between atoms: _523  and  _524
REMARK  222  A    between atoms: _527  and  _529
REMARK  223  A    between atoms: _529  and  _530
REMARK  224  A    between atoms: _529  and  _532
REMARK  225  A    between atoms: _532  and  _533
REMARK  226  A    between atoms: _533  and  _534
REMARK  227  A    between atoms: _539  and  _541
REMARK  228  A    between atoms: _541  and  _542
REMARK  229  A    between atoms: _541  and  _544
REMARK  230  A    between atoms: _544  and  _545
REMARK  231  A    between atoms: _545  and  _546
REMARK  232  A    between atoms: _546  and  _547
REMARK  233  A    between atoms: _557  and  _558
REMARK  234  A    between atoms: _563  and  _565
REMARK  235  A    between atoms: _565  and  _566
REMARK  236  A    between atoms: _568  and  _570
REMARK  237  A    between atoms: _570  and  _571
REMARK  238  A    between atoms: _570  and  _573
REMARK  239  A    between atoms: _576  and  _578
REMARK  240  A    between atoms: _578  and  _579
REMARK  241  A    between atoms: _578  and  _581
REMARK  242  A    between atoms: _581  and  _582
REMARK  243  A    between atoms: _587  and  _588
REMARK  244  A    between atoms: _590  and  _592
REMARK  245  A    between atoms: _592  and  _593
REMARK  246  A    between atoms: _592  and  _595
REMARK  247  A    between atoms: _595  and  _596
REMARK                            x       y       z     vdW  Elec       q    Type
REMARK                         _______ _______ _______ _____ _____    ______ ____
ROOT
ATOM      1  CA  LYS A   1      45.927  -9.622  27.787  0.00  0.00    +0.145 C 
ENDROOT
BRANCH   1   2
ATOM      2  C   LYS A   1      46.031 -10.953  27.064  0.00  0.00    +0.238 C 
ATOM      3  O   LYS A   1      46.389 -11.946  27.696  0.00  0.00    -0.274 OA
ATOM      4  N   LEU A   2      45.749 -10.998  25.740  0.00  0.00    -0.298 N 
ATOM      5  H   LEU A   2      45.538 -10.114  25.235  0.00  0.00    +0.150 HD
BRANCH   4   6
ATOM      6  CA  LEU A   2      45.735 -12.265  25.002  0.00  0.00    +0.137 C 
BRANCH   6   7
ATOM      7  C   LEU A   2      46.994 -13.113  25.128  0.00  0.00    +0.227 C 
ATOM      8  O   LEU A   2      46.884 -14.328  25.304  0.00  0.00    -0.286 OA
ENDBRANCH   6   7
BRANCH   6   9
ATOM      9  CB  LEU A   2      45.395 -12.036  23.527  0.00  0.00    +0.028 C 
BRANCH   9  10
ATOM     10  CG  LEU A   2      44.348 -12.947  22.903  0.00  0.00    +0.002 C 
ATOM     11  CD2 LEU A   2      43.152 -13.189  23.821  0.00  0.00    +0.000 C 
ATOM     12  CD1 LEU A   2      43.866 -12.365  21.580  0.00  0.00    +0.000 C 
ENDBRANCH   9  10
ENDBRANCH   6   9
ENDBRANCH   4   6
ENDBRANCH   1   2
BRANCH   1  13
ATOM     13  N   LYS A   1      46.009  -9.868  29.236  0.00  0.00    -0.238 NA
ATOM     14  H   LYS A   1      46.372 -10.798  29.528  0.00  0.00    +0.142 HD
ENDBRANCH   1  13
BRANCH   1  15
ATOM     15  CB  LYS A   1      47.000  -8.609  27.306  0.00  0.00    +0.026 C 
BRANCH  15  16
ATOM     16  CG  LYS A   1      48.427  -8.924  27.751  0.00  0.00    -0.000 C 
BRANCH  16  17
ATOM     17  CD  LYS A   1      49.403  -7.887  27.233  0.00  0.00    -0.024 C 
BRANCH  17  18
ATOM     18  CE  LYS A   1      50.825  -8.390  27.191  0.00  0.00    -0.086 C 
BRANCH  18  19
ATOM     19  NZ  LYS A   1      51.421  -8.517  28.547  0.00  0.00    +0.380 N 
ATOM     20  HZ1 LYS A   1      50.859  -9.187  29.110  0.00  0.00    -0.089 HD
ATOM     21  HZ2 LYS A   1      51.422  -7.587  29.012  0.00  0.00    -0.089 HD
ATOM     22  HZ3 LYS A   1      52.397  -8.866  28.464  0.00  0.00    -0.089 HD
ENDBRANCH  18  19
ENDBRANCH  17  18
ENDBRANCH  16  17
ENDBRANCH  15  16
ENDBRANCH   1  15
TORSDOF 11
REMARK  Name = ../refined-set-2016/4y8x/4y8x_pocket.pdb
REMARK  247 active torsions:
REMARK  status: ('A' for Active; 'I' for Inactive)
REMARK    1  A    between atoms: _1  and  _5
REMARK    2  A    between atoms: _5  and  _6
REMARK    3  A    between atoms: _5  and  _8
REMARK    4  A    between atoms: _8  and  _9
REMARK    5  A    between atoms: _12  and  _14
REMARK    6  A    between atoms: _14  and  _15
REMARK    7  A    between atoms: _14  and  _17
REMARK    8  A    between atoms: _20  and  _22
REMARK    9  A    between atoms: _22  and  _23
REMARK   10  A    between atoms: _22  and  _25
REMARK   11  A    between atoms: _25  and  _26
REMARK   12  A    between atoms: _29  and  _31
REMARK   13  A    between atoms: _31  and  _32
REMARK   14  A    between atoms: _31  and  _34
REMARK   15  A    between atoms: _34  and  _35
REMARK   16  A    between atoms: _38  and  _40
REMARK   17  A    between atoms: _40  and  _41
REMARK   18  A    between atoms: _40  and  _43
REMARK   19  A    between atoms: _43  and  _44
REMARK   20  A    between atoms: _49  and  _51
REMARK   21  A    between atoms: _51  and  _52
REMARK   22  A    between atoms: _51  and  _54
REMARK   23  A    between atoms: _54  and  _55
REMARK   24  A    between atoms: _58  and  _60
REMARK   25  A    between atoms: _60  and  _61
REMARK   26  A    between atoms: _60  and  _63
REMARK   27  A    between atoms: _63  and  _64
REMARK   28  A    between atoms: _67  and  _69
REMARK   29  A    between atoms: _69  and  _70
REMARK   30  A    between atoms: _69  and  _72
REMARK   31  A    between atoms: _72  and  _73
REMARK   32  A    between atoms: _73  and  _74
REMARK   33  A    between atoms: _79  and  _81
REMARK   34  A    between atoms: _81  and  _82
REMARK   35  A    between atoms: _81  and  _84
REMARK   36  A    between atoms: _84  and  _85
REMARK   37  A    between atoms: _85  and  _86
REMARK   38  A    between atoms: _86  and  _87
REMARK   39  A    between atoms: _96  and  _98
REMARK   40  A    between atoms: _98  and  _99
REMARK   41  A    between atoms: _98  and  _101
REMARK   42  A    between atoms: _101  and  _102
REMARK   43  A    between atoms: _107  and  _109
REMARK   44  A    between atoms: _109  and  _110
REMARK   45  A    between atoms: _109  and  _112
REMARK   46  A    between atoms: _112  and  _113
REMARK   47  A    between atoms: _116  and  _118
REMARK   48  A    between atoms: _118  and  _119
REMARK   49  A    between atoms: _118  and  _121
REMARK   50  A    between atoms: _121  and  _122
REMARK   51  A    between atoms: _122  and  _157
REMARK   52  A    between atoms: _123  and  _125
REMARK   53  A    between atoms: _125  and  _126
REMARK   54  A    between atoms: _128  and  _130
REMARK   55  A    between atoms: _130  and  _131
REMARK   56  A    between atoms: _134  and  _136
REMARK   57  A    between atoms: _136  and  _137
REMARK   58  A    between atoms: _140  and  _142
REMARK   59  A    between atoms: _142  and  _143
REMARK   60  A    between atoms: _142  and  _145
REMARK   61  A    between atoms: _145  and  _146
REMARK   62  A    between atoms: _151  and  _153
REMARK   63  A    between atoms: _153  and  _154
REMARK   64  A    between atoms: _153  and  _156
REMARK   65  A    between atoms: _156  and  _157
REMARK   66  A    between atoms: _158  and  _160
REMARK   67  A    between atoms: _160  and  _161
REMARK   68  A    between atoms: _160  and  _163
REMARK   69  A    between atoms: _163  and  _164
REMARK   70  A    between atoms: _170  and  _172
REMARK   71  A    between atoms: _172  and  _173
REMARK   72  A    between atoms: _172  and  _175
REMARK   73  A    between atoms: _175  and  _176
REMARK   74  A    between atoms: _181  and  _182
REMARK   75  A    between atoms: _184  and  _186
REMARK   76  A    between atoms: _186  and  _187
REMARK   77  A    between atoms: _186  and  _189
REMARK   78  A    between atoms: _192  and  _194
REMARK   79  A    between atoms: _194  and  _195
REMARK   80  A    between atoms: _194  and  _197
REMARK   81  A    between atoms: _197  and  _198
REMARK   82  A    between atoms: _198  and  _199
REMARK   83  A    between atoms: _204  and  _206
REMARK   84  A    between atoms: _206  and  _207
REMARK   85  A    between atoms: _210  and  _212
REMARK   86  A    between atoms: _212  and  _213
REMARK   87  A    between atoms: _212  and  _215
REMARK   88  A    between atoms: _215  and  _216
REMARK   89  A    between atoms: _219  and  _221
REMARK   90  A    between atoms: _221  and  _222
REMARK   91  A    between atoms: _221  and  _224
REMARK   92  A    between atoms: _227  and  _229
REMARK   93  A    between atoms: _229  and  _230
REMARK   94  A    between atoms: _229  and  _232
REMARK   95  A    between atoms: _232  and  _233
REMARK   96  A    between atoms: _243  and  _245
REMARK   97  A    between atoms: _245  and  _246
REMARK   98  A    between atoms: _248  and  _250
REMARK   99  A    between atoms: _250  and  _251
REMARK  100  A    between atoms: _250  and  _253
REMARK  101  A    between atoms: _253  and  _254
REMARK  102  A    between atoms: _259  and  _260
REMARK  103  A    between atoms: _262  and  _264
REMARK  104  A    between atoms: _264  and  _265
REMARK  105  A    between atoms: _264  and  _267
REMARK  106  A    between atoms: _267  and  _268
REMARK  107  A    between atoms: _268  and  _269
REMARK  108  A    between atoms: _269  and  _270
REMARK  109  A    between atoms: _270  and  _271
REMARK  110  A    between atoms: _275  and  _277
REMARK  111  A    between atoms: _277  and  _278
REMARK  112  A    between atoms: _277  and  _280
REMARK  113  A    between atoms: _280  and  _281
REMARK  114  A    between atoms: _284  and  _286
REMARK  115  A    between atoms: _286  and  _287
REMARK  116  A    between atoms: _286  and  _289
REMARK  117  A    between atoms: _289  and  _290
REMARK  118  A    between atoms: _293  and  _295
REMARK  119  A    between atoms: _295  and  _296
REMARK  120  A    between atoms: _295  and  _298
REMARK  121  A    between atoms: _298  and  _299
REMARK  122  A    between atoms: _299  and  _300
REMARK  123  A    between atoms: _300  and  _301
REMARK  124  A    between atoms: _301  and  _302
REMARK  125  A    between atoms: _306  and  _308
REMARK  126  A    between atoms: _308  and  _309
REMARK  127  A    between atoms: _308  and  _311
REMARK  128  A    between atoms: _311  and  _312
REMARK  129  A    between atoms: _315  and  _317
REMARK  130  A    between atoms: _317  and  _318
REMARK  131  A    between atoms: _317  and  _320
REMARK  132  A    between atoms: _320  and  _321
REMARK  133  A    between atoms: _321  and  _322
REMARK  134  A    between atoms: _327  and  _329
REMARK  135  A    between atoms: _329  and  _330
REMARK  136  A    between atoms: _329  and  _332
REMARK  137  A    between atoms: _332  and  _333
REMARK  138  A    between atoms: _336  and  _338
REMARK  139  A    between atoms: _338  and  _339
REMARK  140  A    between atoms: _338  and  _341
REMARK  141  A    between atoms: _341  and  _342
REMARK  142  A    between atoms: _347  and  _348
REMARK  143  A    between atoms: _350  and  _352
REMARK  144  A    between atoms: _352  and  _353
REMARK  145  A    between atoms: _352  and  _355
REMARK  146  A    between atoms: _355  and  _356
REMARK  147  A    between atoms: _359  and  _361
REMARK  148  A    between atoms: _361  and  _362
REMARK  149  A    between atoms: _361  and  _364
REMARK  150  A    between atoms: _366  and  _368
REMARK  151  A    between atoms: _368  and  _369
REMARK  152  A    between atoms: _372  and  _374
REMARK  153  A    between atoms: _374  and  _375
REMARK  154  A    between atoms: _374  and  _377
REMARK  155  A    between atoms: _377  and  _378
REMARK  156  A    between atoms: _378  and  _379
REMARK  157  A    between atoms: _379  and  _380
REMARK  158  A    between atoms: _380  and  _381
REMARK  159  A    between atoms: _385  and  _387
REMARK  160  A    between atoms: _387  and  _388
REMARK  161  A    between atoms: _387  and  _390
REMARK  162  A    between atoms: _390  and  _391
REMARK  163  A    between atoms: _394  and  _396
REMARK  164  A    between atoms: _396  and  _397
REMARK  165  A    between atoms: _400  and  _402
REMARK  166  A    between atoms: _402  and  _403
REMARK  167  A    between atoms: _402  and  _405
REMARK  168  A    between atoms: _405  and  _406
REMARK  169  A    between atoms: _406  and  _520
REMARK  170  A    between atoms: _407  and  _409
REMARK  171  A    between atoms: _409  and  _410
REMARK  172  A    between atoms: _409  and  _412
REMARK  173  A    between atoms: _412  and  _413
REMARK  174  A    between atoms: _413  and  _414
REMARK  175  A    between atoms: _414  and  _415
REMARK  176  A    between atoms: _415  and  _416
REMARK  177  A    between atoms: _420  and  _422
REMARK  178  A    between atoms: _422  and  _423
REMARK  179  A    between atoms: _425  and  _427
REMARK  180  A    between atoms: _427  and  _428
REMARK  181  A    between atoms: _427  and  _430
REMARK  182  A    between atoms: _430  and  _431
REMARK  183  A    between atoms: _434  and  _436
REMARK  184  A    between atoms: _436  and  _437
REMARK  185  A    between atoms: _436  and  _439
REMARK  186  A    between atoms: _439  and  _440
REMARK  187  A    between atoms: _442  and  _444
REMARK  188  A    between atoms: _444  and  _445
REMARK  189  A    between atoms: _447  and  _449
REMARK  190  A    between atoms: _449  and  _450
REMARK  191  A    between atoms: _452  and  _454
REMARK  192  A    between atoms: _454  and  _455
REMARK  193  A    between atoms: _454  and  _457
REMARK  194  A    between atoms: _457  and  _458
REMARK  195  A    between atoms: _461  and  _463
REMARK  196  A    between atoms: _463  and  _464
REMARK  197  A    between atoms: _463  and  _466
REMARK  198  A    between atoms: _466  and  _467
REMARK  199  A    between atoms: _470  and  _472
REMARK  200  A    between atoms: _472  and  _473
REMARK  201  A    between atoms: _472  and  _475
REMARK  202  A    between atoms: _475  and  _476
REMARK  203  A    between atoms: _478  and  _480
REMARK  204  A    between atoms: _480  and  _481
REMARK  205  A    between atoms: _480  and  _483
REMARK  206  A    between atoms: _483  and  _484
REMARK  207  A    between atoms: _494  and  _496
REMARK  208  A    between atoms: _496  and  _497
REMARK  209  A    between atoms: _499  and  _501
REMARK  210  A    between atoms: _501  and  _502
REMARK  211  A    between atoms: _501  and  _504
REMARK  212  A    between atoms: _504  and  _505
REMARK  213  A    between atoms: _505  and  _506
REMARK  214  A    between atoms: _509  and  _511
REMARK  215  A    between atoms: _511  and  _512
REMARK  216  A    between atoms: _514  and  _516
REMARK  217  A    between atoms: _516  and  _517
REMARK  218  A    between atoms: _516  and  _519
REMARK  219  A    between atoms: _519  and  _520
REMARK  220  A    between atoms: _521  and  _523
REMARK  221  A    between atoms: _523  and  _524
REMARK  222  A    between atoms: _527  and  _529
REMARK  223  A    between atoms: _529  and  _530
REMARK  224  A    between atoms: _529  and  _532
REMARK  225  A    between atoms: _532  and  _533
REMARK  226  A    between atoms: _533  and  _534
REMARK  227  A    between atoms: _539  and  _541
REMARK  228  A    between atoms: _541  and  _542
REMARK  229  A    between atoms: _541  and  _544
REMARK  230  A    between atoms: _544  and  _545
REMARK  231  A    between atoms: _545  and  _546
REMARK  232  A    between atoms: _546  and  _547
REMARK  233  A    between atoms: _557  and  _558
REMARK  234  A    between atoms: _563  and  _565
REMARK  235  A    between atoms: _565  and  _566
REMARK  236  A    between atoms: _568  and  _570
REMARK  237  A    between atoms: _570  and  _571
REMARK  238  A    between atoms: _570  and  _573
REMARK  239  A    between atoms: _576  and  _578
REMARK  240  A    between atoms: _578  and  _579
REMARK  241  A    between atoms: _578  and  _581
REMARK  242  A    between atoms: _581  and  _582
REMARK  243  A    between atoms: _587  and  _588
REMARK  244  A    between atoms: _590  and  _592
REMARK  245  A    between atoms: _592  and  _593
REMARK  246  A    between atoms: _592  and  _595
REMARK  247  A    between atoms: _595  and  _596
REMARK                            x       y       z     vdW  Elec       q    Type
REMARK                         _______ _______ _______ _____ _____    ______ ____
ROOT
ATOM      1  C   LYS A   2      49.599 -15.565  32.950  0.00  0.00    +0.241 C 
ATOM      2  N   ILE A   3      49.414 -16.669  33.661  0.00  0.00    -0.297 N 
ATOM      3  H   ILE A   3      49.886 -17.542  33.349  0.00  0.00    +0.150 HD
ATOM      4  O   LYS A   2      49.056 -14.494  33.203  0.00  0.00    -0.273 OA
ENDROOT
BRANCH   2   5
ATOM      5  CA  ILE A   3      48.571 -16.723  34.874  0.00  0.00    +0.149 C 
BRANCH   5   6
ATOM      6  C   ILE A   3      49.178 -15.766  35.906  0.00  0.00    +0.241 C 
ATOM      7  N   GLN A   4      48.335 -14.967  36.543  0.00  0.00    -0.298 N 
ATOM      8  H   GLN A   4      47.322 -15.045  36.320  0.00  0.00    +0.150 HD
ATOM      9  O   ILE A   3      50.399 -15.734  36.075  0.00  0.00    -0.273 OA
BRANCH   7  10
ATOM     10  CA  GLN A   4      48.744 -13.985  37.538  0.00  0.00    +0.137 C 
BRANCH  10  11
ATOM     11  C   GLN A   4      48.870 -14.623  38.897  0.00  0.00    +0.227 C 
ATOM     12  O   GLN A   4      48.100 -15.522  39.230  0.00  0.00    -0.286 OA
ENDBRANCH  10  11
BRANCH  10  13
ATOM     13  CB  GLN A   4      47.735 -12.835  37.586  0.00  0.00    +0.037 C 
BRANCH  13  14
ATOM     14  CG  GLN A   4      47.623 -12.102  36.224  0.00  0.00    +0.087 C 
BRANCH  14  15
ATOM     15  CD  GLN A   4      48.970 -11.567  35.820  0.00  0.00    +0.219 C 
ATOM     16  OE1 GLN A   4      49.501 -10.681  36.476  0.00  0.00    -0.275 OA
ATOM     17  NE2 GLN A   4      49.608 -12.181  34.831  0.00  0.00    -0.329 N 
ATOM     18 HE21 GLN A   4      50.585 -11.912  34.596  0.00  0.00    +0.145 HD
ATOM     19 HE22 GLN A   4      49.131 -12.931  34.291  0.00  0.00    +0.145 HD
ENDBRANCH  14  15
ENDBRANCH  13  14
ENDBRANCH  10  13
ENDBRANCH   7  10
ENDBRANCH   5   6
BRANCH   5  20
ATOM     20  CB  ILE A   3      48.485 -18.201  35.379  0.00  0.00    +0.027 C 
ATOM     21  CG2 ILE A   3      47.879 -18.335  36.811  0.00  0.00    +0.002 C 
BRANCH  20  22
ATOM     22  CG1 ILE A   3      47.709 -19.081  34.372  0.00  0.00    +0.002 C 
ATOM     23  CD1 ILE A   3      46.332 -18.569  33.884  0.00  0.00    +0.000 C 
ENDBRANCH  20  22
ENDBRANCH   5  20
ENDBRANCH   2   5
BRANCH   1  24
ATOM     24  CA  LYS A   2      50.571 -15.671  31.797  0.00  0.00    +0.149 C 
BRANCH  24  26
ATOM     25  C   ASP A   1      50.552 -14.561  29.624  0.00  0.00    +0.239 C 
ATOM     26  N   LYS A   2      50.351 -14.528  30.935  0.00  0.00    -0.297 N 
ATOM     27  H   LYS A   2      50.020 -13.640  31.364  0.00  0.00    +0.150 HD
ATOM     28  O   ASP A   1      50.984 -15.549  29.045  0.00  0.00    -0.274 OA
BRANCH  25  29
ATOM     29  CA  ASP A   1      50.285 -13.282  28.856  0.00  0.00    +0.156 C 
BRANCH  29  30
ATOM     30  N   ASP A   1      49.812 -13.621  27.521  0.00  0.00    -0.238 NA
ATOM     31  H   ASP A   1      49.289 -14.507  27.371  0.00  0.00    +0.142 HD
ENDBRANCH  29  30
BRANCH  29  32
ATOM     32  CB  ASP A   1      49.261 -12.350  29.560  0.00  0.00    +0.140 C 
BRANCH  32  33
ATOM     33  CG  ASP A   1      49.774 -11.566  30.760  0.00  0.00    +0.367 C 
ATOM     34  OD2 ASP A   1      48.957 -11.213  31.628  0.00  0.00    -0.246 OA
ATOM     35  OD1 ASP A   1      50.993 -11.310  30.829  0.00  0.00    -0.246 OA
ENDBRANCH  32  33
ENDBRANCH  29  32
ENDBRANCH  25  29
ENDBRANCH  24  26
BRANCH  24  36
ATOM     36  CB  LYS A   2      52.033 -15.713  32.318  0.00  0.00    +0.029 C 
BRANCH  36  37
ATOM     37  CG  LYS A   2      52.461 -14.503  33.140  0.00  0.00    +0.000 C 
BRANCH  37  38
ATOM     38  CD  LYS A   2      53.716 -14.792  33.952  0.00  0.00    -0.024 C 
BRANCH  38  39
ATOM     39  CE  LYS A   2      54.968 -14.181  33.364  0.00  0.00    -0.086 C 
BRANCH  39  40
ATOM     40  NZ  LYS A   2      55.091 -12.734  33.687  0.00  0.00    +0.380 N 
ATOM     41  HZ1 LYS A   2      55.125 -12.612  34.719  0.00  0.00    -0.089 HD
ATOM     42  HZ2 LYS A   2      54.270 -12.223  33.303  0.00  0.00    -0.089 HD
ATOM     43  HZ3 LYS A   2      55.963 -12.358  33.263  0.00  0.00    -0.089 HD
ENDBRANCH  39  40
ENDBRANCH  38  39
ENDBRANCH  37  38
ENDBRANCH  36  37
ENDBRANCH  24  36
ENDBRANCH   1  24
TORSDOF 20
REMARK  Name = ../refined-set-2016/4y8x/4y8x_pocket.pdb
REMARK  247 active torsions:
REMARK  status: ('A' for Active; 'I' for Inactive)
REMARK    1  A    between atoms: _1  and  _5
REMARK    2  A    between atoms: _5  and  _6
REMARK    3  A    between atoms: _5  and  _8
REMARK    4  A    between atoms: _8  and  _9
REMARK    5  A    between atoms: _12  and  _14
REMARK    6  A    between atoms: _14  and  _15
REMARK    7  A    between atoms: _14  and  _17
REMARK    8  A    between atoms: _20  and  _22
REMARK    9  A    between atoms: _22  and  _23
REMARK   10  A    between atoms: _22  and  _25
REMARK   11  A    between atoms: _25  and  _26
REMARK   12  A    between atoms: _29  and  _31
REMARK   13  A    between atoms: _31  and  _32
REMARK   14  A    between atoms: _31  and  _34
REMARK   15  A    between atoms: _34  and  _35
REMARK   16  A    between atoms: _38  and  _40
REMARK   17  A    between atoms: _40  and  _41
REMARK   18  A    between atoms: _40  and  _43
REMARK   19  A    between atoms: _43  and  _44
REMARK   20  A    between atoms: _49  and  _51
REMARK   21  A    between atoms: _51  and  _52
REMARK   22  A    between atoms: _51  and  _54
REMARK   23  A    between atoms: _54  and  _55
REMARK   24  A    between atoms: _58  and  _60
REMARK   25  A    between atoms: _60  and  _61
REMARK   26  A    between atoms: _60  and  _63
REMARK   27  A    between atoms: _63  and  _64
REMARK   28  A    between atoms: _67  and  _69
REMARK   29  A    between atoms: _69  and  _70
REMARK   30  A    between atoms: _69  and  _72
REMARK   31  A    between atoms: _72  and  _73
REMARK   32  A    between atoms: _73  and  _74
REMARK   33  A    between atoms: _79  and  _81
REMARK   34  A    between atoms: _81  and  _82
REMARK   35  A    between atoms: _81  and  _84
REMARK   36  A    between atoms: _84  and  _85
REMARK   37  A    between atoms: _85  and  _86
REMARK   38  A    between atoms: _86  and  _87
REMARK   39  A    between atoms: _96  and  _98
REMARK   40  A    between atoms: _98  and  _99
REMARK   41  A    between atoms: _98  and  _101
REMARK   42  A    between atoms: _101  and  _102
REMARK   43  A    between atoms: _107  and  _109
REMARK   44  A    between atoms: _109  and  _110
REMARK   45  A    between atoms: _109  and  _112
REMARK   46  A    between atoms: _112  and  _113
REMARK   47  A    between atoms: _116  and  _118
REMARK   48  A    between atoms: _118  and  _119
REMARK   49  A    between atoms: _118  and  _121
REMARK   50  A    between atoms: _121  and  _122
REMARK   51  A    between atoms: _122  and  _157
REMARK   52  A    between atoms: _123  and  _125
REMARK   53  A    between atoms: _125  and  _126
REMARK   54  A    between atoms: _128  and  _130
REMARK   55  A    between atoms: _130  and  _131
REMARK   56  A    between atoms: _134  and  _136
REMARK   57  A    between atoms: _136  and  _137
REMARK   58  A    between atoms: _140  and  _142
REMARK   59  A    between atoms: _142  and  _143
REMARK   60  A    between atoms: _142  and  _145
REMARK   61  A    between atoms: _145  and  _146
REMARK   62  A    between atoms: _151  and  _153
REMARK   63  A    between atoms: _153  and  _154
REMARK   64  A    between atoms: _153  and  _156
REMARK   65  A    between atoms: _156  and  _157
REMARK   66  A    between atoms: _158  and  _160
REMARK   67  A    between atoms: _160  and  _161
REMARK   68  A    between atoms: _160  and  _163
REMARK   69  A    between atoms: _163  and  _164
REMARK   70  A    between atoms: _170  and  _172
REMARK   71  A    between atoms: _172  and  _173
REMARK   72  A    between atoms: _172  and  _175
REMARK   73  A    between atoms: _175  and  _176
REMARK   74  A    between atoms: _181  and  _182
REMARK   75  A    between atoms: _184  and  _186
REMARK   76  A    between atoms: _186  and  _187
REMARK   77  A    between atoms: _186  and  _189
REMARK   78  A    between atoms: _192  and  _194
REMARK   79  A    between atoms: _194  and  _195
REMARK   80  A    between atoms: _194  and  _197
REMARK   81  A    between atoms: _197  and  _198
REMARK   82  A    between atoms: _198  and  _199
REMARK   83  A    between atoms: _204  and  _206
REMARK   84  A    between atoms: _206  and  _207
REMARK   85  A    between atoms: _210  and  _212
REMARK   86  A    between atoms: _212  and  _213
REMARK   87  A    between atoms: _212  and  _215
REMARK   88  A    between atoms: _215  and  _216
REMARK   89  A    between atoms: _219  and  _221
REMARK   90  A    between atoms: _221  and  _222
REMARK   91  A    between atoms: _221  and  _224
REMARK   92  A    between atoms: _227  and  _229
REMARK   93  A    between atoms: _229  and  _230
REMARK   94  A    between atoms: _229  and  _232
REMARK   95  A    between atoms: _232  and  _233
REMARK   96  A    between atoms: _243  and  _245
REMARK   97  A    between atoms: _245  and  _246
REMARK   98  A    between atoms: _248  and  _250
REMARK   99  A    between atoms: _250  and  _251
REMARK  100  A    between atoms: _250  and  _253
REMARK  101  A    between atoms: _253  and  _254
REMARK  102  A    between atoms: _259  and  _260
REMARK  103  A    between atoms: _262  and  _264
REMARK  104  A    between atoms: _264  and  _265
REMARK  105  A    between atoms: _264  and  _267
REMARK  106  A    between atoms: _267  and  _268
REMARK  107  A    between atoms: _268  and  _269
REMARK  108  A    between atoms: _269  and  _270
REMARK  109  A    between atoms: _270  and  _271
REMARK  110  A    between atoms: _275  and  _277
REMARK  111  A    between atoms: _277  and  _278
REMARK  112  A    between atoms: _277  and  _280
REMARK  113  A    between atoms: _280  and  _281
REMARK  114  A    between atoms: _284  and  _286
REMARK  115  A    between atoms: _286  and  _287
REMARK  116  A    between atoms: _286  and  _289
REMARK  117  A    between atoms: _289  and  _290
REMARK  118  A    between atoms: _293  and  _295
REMARK  119  A    between atoms: _295  and  _296
REMARK  120  A    between atoms: _295  and  _298
REMARK  121  A    between atoms: _298  and  _299
REMARK  122  A    between atoms: _299  and  _300
REMARK  123  A    between atoms: _300  and  _301
REMARK  124  A    between atoms: _301  and  _302
REMARK  125  A    between atoms: _306  and  _308
REMARK  126  A    between atoms: _308  and  _309
REMARK  127  A    between atoms: _308  and  _311
REMARK  128  A    between atoms: _311  and  _312
REMARK  129  A    between atoms: _315  and  _317
REMARK  130  A    between atoms: _317  and  _318
REMARK  131  A    between atoms: _317  and  _320
REMARK  132  A    between atoms: _320  and  _321
REMARK  133  A    between atoms: _321  and  _322
REMARK  134  A    between atoms: _327  and  _329
REMARK  135  A    between atoms: _329  and  _330
REMARK  136  A    between atoms: _329  and  _332
REMARK  137  A    between atoms: _332  and  _333
REMARK  138  A    between atoms: _336  and  _338
REMARK  139  A    between atoms: _338  and  _339
REMARK  140  A    between atoms: _338  and  _341
REMARK  141  A    between atoms: _341  and  _342
REMARK  142  A    between atoms: _347  and  _348
REMARK  143  A    between atoms: _350  and  _352
REMARK  144  A    between atoms: _352  and  _353
REMARK  145  A    between atoms: _352  and  _355
REMARK  146  A    between atoms: _355  and  _356
REMARK  147  A    between atoms: _359  and  _361
REMARK  148  A    between atoms: _361  and  _362
REMARK  149  A    between atoms: _361  and  _364
REMARK  150  A    between atoms: _366  and  _368
REMARK  151  A    between atoms: _368  and  _369
REMARK  152  A    between atoms: _372  and  _374
REMARK  153  A    between atoms: _374  and  _375
REMARK  154  A    between atoms: _374  and  _377
REMARK  155  A    between atoms: _377  and  _378
REMARK  156  A    between atoms: _378  and  _379
REMARK  157  A    between atoms: _379  and  _380
REMARK  158  A    between atoms: _380  and  _381
REMARK  159  A    between atoms: _385  and  _387
REMARK  160  A    between atoms: _387  and  _388
REMARK  161  A    between atoms: _387  and  _390
REMARK  162  A    between atoms: _390  and  _391
REMARK  163  A    between atoms: _394  and  _396
REMARK  164  A    between atoms: _396  and  _397
REMARK  165  A    between atoms: _400  and  _402
REMARK  166  A    between atoms: _402  and  _403
REMARK  167  A    between atoms: _402  and  _405
REMARK  168  A    between atoms: _405  and  _406
REMARK  169  A    between atoms: _406  and  _520
REMARK  170  A    between atoms: _407  and  _409
REMARK  171  A    between atoms: _409  and  _410
REMARK  172  A    between atoms: _409  and  _412
REMARK  173  A    between atoms: _412  and  _413
REMARK  174  A    between atoms: _413  and  _414
REMARK  175  A    between atoms: _414  and  _415
REMARK  176  A    between atoms: _415  and  _416
REMARK  177  A    between atoms: _420  and  _422
REMARK  178  A    between atoms: _422  and  _423
REMARK  179  A    between atoms: _425  and  _427
REMARK  180  A    between atoms: _427  and  _428
REMARK  181  A    between atoms: _427  and  _430
REMARK  182  A    between atoms: _430  and  _431
REMARK  183  A    between atoms: _434  and  _436
REMARK  184  A    between atoms: _436  and  _437
REMARK  185  A    between atoms: _436  and  _439
REMARK  186  A    between atoms: _439  and  _440
REMARK  187  A    between atoms: _442  and  _444
REMARK  188  A    between atoms: _444  and  _445
REMARK  189  A    between atoms: _447  and  _449
REMARK  190  A    between atoms: _449  and  _450
REMARK  191  A    between atoms: _452  and  _454
REMARK  192  A    between atoms: _454  and  _455
REMARK  193  A    between atoms: _454  and  _457
REMARK  194  A    between atoms: _457  and  _458
REMARK  195  A    between atoms: _461  and  _463
REMARK  196  A    between atoms: _463  and  _464
REMARK  197  A    between atoms: _463  and  _466
REMARK  198  A    between atoms: _466  and  _467
REMARK  199  A    between atoms: _470  and  _472
REMARK  200  A    between atoms: _472  and  _473
REMARK  201  A    between atoms: _472  and  _475
REMARK  202  A    between atoms: _475  and  _476
REMARK  203  A    between atoms: _478  and  _480
REMARK  204  A    between atoms: _480  and  _481
REMARK  205  A    between atoms: _480  and  _483
REMARK  206  A    between atoms: _483  and  _484
REMARK  207  A    between atoms: _494  and  _496
REMARK  208  A    between atoms: _496  and  _497
REMARK  209  A    between atoms: _499  and  _501
REMARK  210  A    between atoms: _501  and  _502
REMARK  211  A    between atoms: _501  and  _504
REMARK  212  A    between atoms: _504  and  _505
REMARK  213  A    between atoms: _505  and  _506
REMARK  214  A    between atoms: _509  and  _511
REMARK  215  A    between atoms: _511  and  _512
REMARK  216  A    between atoms: _514  and  _516
REMARK  217  A    between atoms: _516  and  _517
REMARK  218  A    between atoms: _516  and  _519
REMARK  219  A    between atoms: _519  and  _520
REMARK  220  A    between atoms: _521  and  _523
REMARK  221  A    between atoms: _523  and  _524
REMARK  222  A    between atoms: _527  and  _529
REMARK  223  A    between atoms: _529  and  _530
REMARK  224  A    between atoms: _529  and  _532
REMARK  225  A    between atoms: _532  and  _533
REMARK  226  A    between atoms: _533  and  _534
REMARK  227  A    between atoms: _539  and  _541
REMARK  228  A    between atoms: _541  and  _542
REMARK  229  A    between atoms: _541  and  _544
REMARK  230  A    between atoms: _544  and  _545
REMARK  231  A    between atoms: _545  and  _546
REMARK  232  A    between atoms: _546  and  _547
REMARK  233  A    between atoms: _557  and  _558
REMARK  234  A    between atoms: _563  and  _565
REMARK  235  A    between atoms: _565  and  _566
REMARK  236  A    between atoms: _568  and  _570
REMARK  237  A    between atoms: _570  and  _571
REMARK  238  A    between atoms: _570  and  _573
REMARK  239  A    between atoms: _576  and  _578
REMARK  240  A    between atoms: _578  and  _579
REMARK  241  A    between atoms: _578  and  _581
REMARK  242  A    between atoms: _581  and  _582
REMARK  243  A    between atoms: _587  and  _588
REMARK  244  A    between atoms: _590  and  _592
REMARK  245  A    between atoms: _592  and  _593
REMARK  246  A    between atoms: _592  and  _595
REMARK  247  A    between atoms: _595  and  _596
REMARK                            x       y       z     vdW  Elec       q    Type
REMARK                         _______ _______ _______ _____ _____    ______ ____
ROOT
ATOM      1  CA  ILE A   1      31.729  -4.872  34.889  0.00  0.00    +0.133 C 
ENDROOT
BRANCH   1   2
ATOM      2  N   ILE A   1      32.215  -4.921  36.279  0.00  0.00    -0.239 NA
ATOM      3  H   ILE A   1      31.725  -5.526  36.968  0.00  0.00    +0.142 HD
ENDBRANCH   1   2
BRANCH   1   4
ATOM      4  C   ILE A   1      30.219  -4.784  34.841  0.00  0.00    +0.224 C 
ATOM      5  O   ILE A   1      29.555  -5.455  35.625  0.00  0.00    -0.287 OA
ENDBRANCH   1   4
BRANCH   1   6
ATOM      6  CB  ILE A   1      32.257  -6.073  34.027  0.00  0.00    +0.023 C 
ATOM      7  CG2 ILE A   1      33.777  -5.949  33.688  0.00  0.00    +0.002 C 
BRANCH   6   8
ATOM      8  CG1 ILE A   1      31.919  -7.436  34.673  0.00  0.00    +0.002 C 
ATOM      9  CD1 ILE A   1      32.325  -8.646  33.800  0.00  0.00    +0.000 C 
ENDBRANCH   6   8
ENDBRANCH   1   6
TORSDOF 4
REMARK  Name = ../refined-set-2016/4y8x/4y8x_pocket.pdb
REMARK  247 active torsions:
REMARK  status: ('A' for Active; 'I' for Inactive)
REMARK    1  A    between atoms: _1  and  _5
REMARK    2  A    between atoms: _5  and  _6
REMARK    3  A    between atoms: _5  and  _8
REMARK    4  A    between atoms: _8  and  _9
REMARK    5  A    between atoms: _12  and  _14
REMARK    6  A    between atoms: _14  and  _15
REMARK    7  A    between atoms: _14  and  _17
REMARK    8  A    between atoms: _20  and  _22
REMARK    9  A    between atoms: _22  and  _23
REMARK   10  A    between atoms: _22  and  _25
REMARK   11  A    between atoms: _25  and  _26
REMARK   12  A    between atoms: _29  and  _31
REMARK   13  A    between atoms: _31  and  _32
REMARK   14  A    between atoms: _31  and  _34
REMARK   15  A    between atoms: _34  and  _35
REMARK   16  A    between atoms: _38  and  _40
REMARK   17  A    between atoms: _40  and  _41
REMARK   18  A    between atoms: _40  and  _43
REMARK   19  A    between atoms: _43  and  _44
REMARK   20  A    between atoms: _49  and  _51
REMARK   21  A    between atoms: _51  and  _52
REMARK   22  A    between atoms: _51  and  _54
REMARK   23  A    between atoms: _54  and  _55
REMARK   24  A    between atoms: _58  and  _60
REMARK   25  A    between atoms: _60  and  _61
REMARK   26  A    between atoms: _60  and  _63
REMARK   27  A    between atoms: _63  and  _64
REMARK   28  A    between atoms: _67  and  _69
REMARK   29  A    between atoms: _69  and  _70
REMARK   30  A    between atoms: _69  and  _72
REMARK   31  A    between atoms: _72  and  _73
REMARK   32  A    between atoms: _73  and  _74
REMARK   33  A    between atoms: _79  and  _81
REMARK   34  A    between atoms: _81  and  _82
REMARK   35  A    between atoms: _81  and  _84
REMARK   36  A    between atoms: _84  and  _85
REMARK   37  A    between atoms: _85  and  _86
REMARK   38  A    between atoms: _86  and  _87
REMARK   39  A    between atoms: _96  and  _98
REMARK   40  A    between atoms: _98  and  _99
REMARK   41  A    between atoms: _98  and  _101
REMARK   42  A    between atoms: _101  and  _102
REMARK   43  A    between atoms: _107  and  _109
REMARK   44  A    between atoms: _109  and  _110
REMARK   45  A    between atoms: _109  and  _112
REMARK   46  A    between atoms: _112  and  _113
REMARK   47  A    between atoms: _116  and  _118
REMARK   48  A    between atoms: _118  and  _119
REMARK   49  A    between atoms: _118  and  _121
REMARK   50  A    between atoms: _121  and  _122
REMARK   51  A    between atoms: _122  and  _157
REMARK   52  A    between atoms: _123  and  _125
REMARK   53  A    between atoms: _125  and  _126
REMARK   54  A    between atoms: _128  and  _130
REMARK   55  A    between atoms: _130  and  _131
REMARK   56  A    between atoms: _134  and  _136
REMARK   57  A    between atoms: _136  and  _137
REMARK   58  A    between atoms: _140  and  _142
REMARK   59  A    between atoms: _142  and  _143
REMARK   60  A    between atoms: _142  and  _145
REMARK   61  A    between atoms: _145  and  _146
REMARK   62  A    between atoms: _151  and  _153
REMARK   63  A    between atoms: _153  and  _154
REMARK   64  A    between atoms: _153  and  _156
REMARK   65  A    between atoms: _156  and  _157
REMARK   66  A    between atoms: _158  and  _160
REMARK   67  A    between atoms: _160  and  _161
REMARK   68  A    between atoms: _160  and  _163
REMARK   69  A    between atoms: _163  and  _164
REMARK   70  A    between atoms: _170  and  _172
REMARK   71  A    between atoms: _172  and  _173
REMARK   72  A    between atoms: _172  and  _175
REMARK   73  A    between atoms: _175  and  _176
REMARK   74  A    between atoms: _181  and  _182
REMARK   75  A    between atoms: _184  and  _186
REMARK   76  A    between atoms: _186  and  _187
REMARK   77  A    between atoms: _186  and  _189
REMARK   78  A    between atoms: _192  and  _194
REMARK   79  A    between atoms: _194  and  _195
REMARK   80  A    between atoms: _194  and  _197
REMARK   81  A    between atoms: _197  and  _198
REMARK   82  A    between atoms: _198  and  _199
REMARK   83  A    between atoms: _204  and  _206
REMARK   84  A    between atoms: _206  and  _207
REMARK   85  A    between atoms: _210  and  _212
REMARK   86  A    between atoms: _212  and  _213
REMARK   87  A    between atoms: _212  and  _215
REMARK   88  A    between atoms: _215  and  _216
REMARK   89  A    between atoms: _219  and  _221
REMARK   90  A    between atoms: _221  and  _222
REMARK   91  A    between atoms: _221  and  _224
REMARK   92  A    between atoms: _227  and  _229
REMARK   93  A    between atoms: _229  and  _230
REMARK   94  A    between atoms: _229  and  _232
REMARK   95  A    between atoms: _232  and  _233
REMARK   96  A    between atoms: _243  and  _245
REMARK   97  A    between atoms: _245  and  _246
REMARK   98  A    between atoms: _248  and  _250
REMARK   99  A    between atoms: _250  and  _251
REMARK  100  A    between atoms: _250  and  _253
REMARK  101  A    between atoms: _253  and  _254
REMARK  102  A    between atoms: _259  and  _260
REMARK  103  A    between atoms: _262  and  _264
REMARK  104  A    between atoms: _264  and  _265
REMARK  105  A    between atoms: _264  and  _267
REMARK  106  A    between atoms: _267  and  _268
REMARK  107  A    between atoms: _268  and  _269
REMARK  108  A    between atoms: _269  and  _270
REMARK  109  A    between atoms: _270  and  _271
REMARK  110  A    between atoms: _275  and  _277
REMARK  111  A    between atoms: _277  and  _278
REMARK  112  A    between atoms: _277  and  _280
REMARK  113  A    between atoms: _280  and  _281
REMARK  114  A    between atoms: _284  and  _286
REMARK  115  A    between atoms: _286  and  _287
REMARK  116  A    between atoms: _286  and  _289
REMARK  117  A    between atoms: _289  and  _290
REMARK  118  A    between atoms: _293  and  _295
REMARK  119  A    between atoms: _295  and  _296
REMARK  120  A    between atoms: _295  and  _298
REMARK  121  A    between atoms: _298  and  _299
REMARK  122  A    between atoms: _299  and  _300
REMARK  123  A    between atoms: _300  and  _301
REMARK  124  A    between atoms: _301  and  _302
REMARK  125  A    between atoms: _306  and  _308
REMARK  126  A    between atoms: _308  and  _309
REMARK  127  A    between atoms: _308  and  _311
REMARK  128  A    between atoms: _311  and  _312
REMARK  129  A    between atoms: _315  and  _317
REMARK  130  A    between atoms: _317  and  _318
REMARK  131  A    between atoms: _317  and  _320
REMARK  132  A    between atoms: _320  and  _321
REMARK  133  A    between atoms: _321  and  _322
REMARK  134  A    between atoms: _327  and  _329
REMARK  135  A    between atoms: _329  and  _330
REMARK  136  A    between atoms: _329  and  _332
REMARK  137  A    between atoms: _332  and  _333
REMARK  138  A    between atoms: _336  and  _338
REMARK  139  A    between atoms: _338  and  _339
REMARK  140  A    between atoms: _338  and  _341
REMARK  141  A    between atoms: _341  and  _342
REMARK  142  A    between atoms: _347  and  _348
REMARK  143  A    between atoms: _350  and  _352
REMARK  144  A    between atoms: _352  and  _353
REMARK  145  A    between atoms: _352  and  _355
REMARK  146  A    between atoms: _355  and  _356
REMARK  147  A    between atoms: _359  and  _361
REMARK  148  A    between atoms: _361  and  _362
REMARK  149  A    between atoms: _361  and  _364
REMARK  150  A    between atoms: _366  and  _368
REMARK  151  A    between atoms: _368  and  _369
REMARK  152  A    between atoms: _372  and  _374
REMARK  153  A    between atoms: _374  and  _375
REMARK  154  A    between atoms: _374  and  _377
REMARK  155  A    between atoms: _377  and  _378
REMARK  156  A    between atoms: _378  and  _379
REMARK  157  A    between atoms: _379  and  _380
REMARK  158  A    between atoms: _380  and  _381
REMARK  159  A    between atoms: _385  and  _387
REMARK  160  A    between atoms: _387  and  _388
REMARK  161  A    between atoms: _387  and  _390
REMARK  162  A    between atoms: _390  and  _391
REMARK  163  A    between atoms: _394  and  _396
REMARK  164  A    between atoms: _396  and  _397
REMARK  165  A    between atoms: _400  and  _402
REMARK  166  A    between atoms: _402  and  _403
REMARK  167  A    between atoms: _402  and  _405
REMARK  168  A    between atoms: _405  and  _406
REMARK  169  A    between atoms: _406  and  _520
REMARK  170  A    between atoms: _407  and  _409
REMARK  171  A    between atoms: _409  and  _410
REMARK  172  A    between atoms: _409  and  _412
REMARK  173  A    between atoms: _412  and  _413
REMARK  174  A    between atoms: _413  and  _414
REMARK  175  A    between atoms: _414  and  _415
REMARK  176  A    between atoms: _415  and  _416
REMARK  177  A    between atoms: _420  and  _422
REMARK  178  A    between atoms: _422  and  _423
REMARK  179  A    between atoms: _425  and  _427
REMARK  180  A    between atoms: _427  and  _428
REMARK  181  A    between atoms: _427  and  _430
REMARK  182  A    between atoms: _430  and  _431
REMARK  183  A    between atoms: _434  and  _436
REMARK  184  A    between atoms: _436  and  _437
REMARK  185  A    between atoms: _436  and  _439
REMARK  186  A    between atoms: _439  and  _440
REMARK  187  A    between atoms: _442  and  _444
REMARK  188  A    between atoms: _444  and  _445
REMARK  189  A    between atoms: _447  and  _449
REMARK  190  A    between atoms: _449  and  _450
REMARK  191  A    between atoms: _452  and  _454
REMARK  192  A    between atoms: _454  and  _455
REMARK  193  A    between atoms: _454  and  _457
REMARK  194  A    between atoms: _457  and  _458
REMARK  195  A    between atoms: _461  and  _463
REMARK  196  A    between atoms: _463  and  _464
REMARK  197  A    between atoms: _463  and  _466
REMARK  198  A    between atoms: _466  and  _467
REMARK  199  A    between atoms: _470  and  _472
REMARK  200  A    between atoms: _472  and  _473
REMARK  201  A    between atoms: _472  and  _475
REMARK  202  A    between atoms: _475  and  _476
REMARK  203  A    between atoms: _478  and  _480
REMARK  204  A    between atoms: _480  and  _481
REMARK  205  A    between atoms: _480  and  _483
REMARK  206  A    between atoms: _483  and  _484
REMARK  207  A    between atoms: _494  and  _496
REMARK  208  A    between atoms: _496  and  _497
REMARK  209  A    between atoms: _499  and  _501
REMARK  210  A    between atoms: _501  and  _502
REMARK  211  A    between atoms: _501  and  _504
REMARK  212  A    between atoms: _504  and  _505
REMARK  213  A    between atoms: _505  and  _506
REMARK  214  A    between atoms: _509  and  _511
REMARK  215  A    between atoms: _511  and  _512
REMARK  216  A    between atoms: _514  and  _516
REMARK  217  A    between atoms: _516  and  _517
REMARK  218  A    between atoms: _516  and  _519
REMARK  219  A    between atoms: _519  and  _520
REMARK  220  A    between atoms: _521  and  _523
REMARK  221  A    between atoms: _523  and  _524
REMARK  222  A    between atoms: _527  and  _529
REMARK  223  A    between atoms: _529  and  _530
REMARK  224  A    between atoms: _529  and  _532
REMARK  225  A    between atoms: _532  and  _533
REMARK  226  A    between atoms: _533  and  _534
REMARK  227  A    between atoms: _539  and  _541
REMARK  228  A    between atoms: _541  and  _542
REMARK  229  A    between atoms: _541  and  _544
REMARK  230  A    between atoms: _544  and  _545
REMARK  231  A    between atoms: _545  and  _546
REMARK  232  A    between atoms: _546  and  _547
REMARK  233  A    between atoms: _557  and  _558
REMARK  234  A    between atoms: _563  and  _565
REMARK  235  A    between atoms: _565  and  _566
REMARK  236  A    between atoms: _568  and  _570
REMARK  237  A    between atoms: _570  and  _571
REMARK  238  A    between atoms: _570  and  _573
REMARK  239  A    between atoms: _576  and  _578
REMARK  240  A    between atoms: _578  and  _579
REMARK  241  A    between atoms: _578  and  _581
REMARK  242  A    between atoms: _581  and  _582
REMARK  243  A    between atoms: _587  and  _588
REMARK  244  A    between atoms: _590  and  _592
REMARK  245  A    between atoms: _592  and  _593
REMARK  246  A    between atoms: _592  and  _595
REMARK  247  A    between atoms: _595  and  _596
REMARK                            x       y       z     vdW  Elec       q    Type
REMARK                         _______ _______ _______ _____ _____    ______ ____
ROOT
ATOM      1  CG  TYR A   1      28.974 -12.229  20.541  0.00  0.00    -0.020 A 
ATOM      2  CD2 TYR A   1      28.826 -11.561  21.754  0.00  0.00    -0.001 A 
ATOM      3  CE2 TYR A   1      29.913 -11.366  22.610  0.00  0.00    +0.036 A 
ATOM      4  CZ  TYR A   1      31.177 -11.783  22.222  0.00  0.00    +0.134 A 
ATOM      5  CE1 TYR A   1      31.352 -12.431  21.006  0.00  0.00    +0.036 A 
ATOM      6  CD1 TYR A   1      30.255 -12.643  20.174  0.00  0.00    -0.001 A 
ENDROOT
BRANCH   4   7
ATOM      7  OH  TYR A   1      32.274 -11.552  23.019  0.00  0.00    -0.506 OA
ATOM      8  HH  TYR A   1      32.143 -11.995  23.895  0.00  0.00    +0.292 HD
ENDBRANCH   4   7
BRANCH   1   9
ATOM      9  CB  TYR A   1      27.787 -12.460  19.624  0.00  0.00    +0.051 C 
BRANCH   9  10
ATOM     10  CA  TYR A   1      27.811 -11.477  18.424  0.00  0.00    +0.137 C 
BRANCH  10  11
ATOM     11  N   TYR A   1      27.357 -10.162  18.858  0.00  0.00    -0.239 NA
ATOM     12  H   TYR A   1      26.367 -10.060  19.159  0.00  0.00    +0.142 HD
ENDBRANCH  10  11
BRANCH  10  13
ATOM     13  C   TYR A   1      27.013 -11.979  17.247  0.00  0.00    +0.224 C 
ATOM     14  O   TYR A   1      26.323 -12.999  17.334  0.00  0.00    -0.287 OA
ENDBRANCH  10  13
ENDBRANCH   9  10
ENDBRANCH   1   9
TORSDOF 5
REMARK  Name = ../refined-set-2016/4y8x/4y8x_pocket.pdb
REMARK  247 active torsions:
REMARK  status: ('A' for Active; 'I' for Inactive)
REMARK    1  A    between atoms: _1  and  _5
REMARK    2  A    between atoms: _5  and  _6
REMARK    3  A    between atoms: _5  and  _8
REMARK    4  A    between atoms: _8  and  _9
REMARK    5  A    between atoms: _12  and  _14
REMARK    6  A    between atoms: _14  and  _15
REMARK    7  A    between atoms: _14  and  _17
REMARK    8  A    between atoms: _20  and  _22
REMARK    9  A    between atoms: _22  and  _23
REMARK   10  A    between atoms: _22  and  _25
REMARK   11  A    between atoms: _25  and  _26
REMARK   12  A    between atoms: _29  and  _31
REMARK   13  A    between atoms: _31  and  _32
REMARK   14  A    between atoms: _31  and  _34
REMARK   15  A    between atoms: _34  and  _35
REMARK   16  A    between atoms: _38  and  _40
REMARK   17  A    between atoms: _40  and  _41
REMARK   18  A    between atoms: _40  and  _43
REMARK   19  A    between atoms: _43  and  _44
REMARK   20  A    between atoms: _49  and  _51
REMARK   21  A    between atoms: _51  and  _52
REMARK   22  A    between atoms: _51  and  _54
REMARK   23  A    between atoms: _54  and  _55
REMARK   24  A    between atoms: _58  and  _60
REMARK   25  A    between atoms: _60  and  _61
REMARK   26  A    between atoms: _60  and  _63
REMARK   27  A    between atoms: _63  and  _64
REMARK   28  A    between atoms: _67  and  _69
REMARK   29  A    between atoms: _69  and  _70
REMARK   30  A    between atoms: _69  and  _72
REMARK   31  A    between atoms: _72  and  _73
REMARK   32  A    between atoms: _73  and  _74
REMARK   33  A    between atoms: _79  and  _81
REMARK   34  A    between atoms: _81  and  _82
REMARK   35  A    between atoms: _81  and  _84
REMARK   36  A    between atoms: _84  and  _85
REMARK   37  A    between atoms: _85  and  _86
REMARK   38  A    between atoms: _86  and  _87
REMARK   39  A    between atoms: _96  and  _98
REMARK   40  A    between atoms: _98  and  _99
REMARK   41  A    between atoms: _98  and  _101
REMARK   42  A    between atoms: _101  and  _102
REMARK   43  A    between atoms: _107  and  _109
REMARK   44  A    between atoms: _109  and  _110
REMARK   45  A    between atoms: _109  and  _112
REMARK   46  A    between atoms: _112  and  _113
REMARK   47  A    between atoms: _116  and  _118
REMARK   48  A    between atoms: _118  and  _119
REMARK   49  A    between atoms: _118  and  _121
REMARK   50  A    between atoms: _121  and  _122
REMARK   51  A    between atoms: _122  and  _157
REMARK   52  A    between atoms: _123  and  _125
REMARK   53  A    between atoms: _125  and  _126
REMARK   54  A    between atoms: _128  and  _130
REMARK   55  A    between atoms: _130  and  _131
REMARK   56  A    between atoms: _134  and  _136
REMARK   57  A    between atoms: _136  and  _137
REMARK   58  A    between atoms: _140  and  _142
REMARK   59  A    between atoms: _142  and  _143
REMARK   60  A    between atoms: _142  and  _145
REMARK   61  A    between atoms: _145  and  _146
REMARK   62  A    between atoms: _151  and  _153
REMARK   63  A    between atoms: _153  and  _154
REMARK   64  A    between atoms: _153  and  _156
REMARK   65  A    between atoms: _156  and  _157
REMARK   66  A    between atoms: _158  and  _160
REMARK   67  A    between atoms: _160  and  _161
REMARK   68  A    between atoms: _160  and  _163
REMARK   69  A    between atoms: _163  and  _164
REMARK   70  A    between atoms: _170  and  _172
REMARK   71  A    between atoms: _172  and  _173
REMARK   72  A    between atoms: _172  and  _175
REMARK   73  A    between atoms: _175  and  _176
REMARK   74  A    between atoms: _181  and  _182
REMARK   75  A    between atoms: _184  and  _186
REMARK   76  A    between atoms: _186  and  _187
REMARK   77  A    between atoms: _186  and  _189
REMARK   78  A    between atoms: _192  and  _194
REMARK   79  A    between atoms: _194  and  _195
REMARK   80  A    between atoms: _194  and  _197
REMARK   81  A    between atoms: _197  and  _198
REMARK   82  A    between atoms: _198  and  _199
REMARK   83  A    between atoms: _204  and  _206
REMARK   84  A    between atoms: _206  and  _207
REMARK   85  A    between atoms: _210  and  _212
REMARK   86  A    between atoms: _212  and  _213
REMARK   87  A    between atoms: _212  and  _215
REMARK   88  A    between atoms: _215  and  _216
REMARK   89  A    between atoms: _219  and  _221
REMARK   90  A    between atoms: _221  and  _222
REMARK   91  A    between atoms: _221  and  _224
REMARK   92  A    between atoms: _227  and  _229
REMARK   93  A    between atoms: _229  and  _230
REMARK   94  A    between atoms: _229  and  _232
REMARK   95  A    between atoms: _232  and  _233
REMARK   96  A    between atoms: _243  and  _245
REMARK   97  A    between atoms: _245  and  _246
REMARK   98  A    between atoms: _248  and  _250
REMARK   99  A    between atoms: _250  and  _251
REMARK  100  A    between atoms: _250  and  _253
REMARK  101  A    between atoms: _253  and  _254
REMARK  102  A    between atoms: _259  and  _260
REMARK  103  A    between atoms: _262  and  _264
REMARK  104  A    between atoms: _264  and  _265
REMARK  105  A    between atoms: _264  and  _267
REMARK  106  A    between atoms: _267  and  _268
REMARK  107  A    between atoms: _268  and  _269
REMARK  108  A    between atoms: _269  and  _270
REMARK  109  A    between atoms: _270  and  _271
REMARK  110  A    between atoms: _275  and  _277
REMARK  111  A    between atoms: _277  and  _278
REMARK  112  A    between atoms: _277  and  _280
REMARK  113  A    between atoms: _280  and  _281
REMARK  114  A    between atoms: _284  and  _286
REMARK  115  A    between atoms: _286  and  _287
REMARK  116  A    between atoms: _286  and  _289
REMARK  117  A    between atoms: _289  and  _290
REMARK  118  A    between atoms: _293  and  _295
REMARK  119  A    between atoms: _295  and  _296
REMARK  120  A    between atoms: _295  and  _298
REMARK  121  A    between atoms: _298  and  _299
REMARK  122  A    between atoms: _299  and  _300
REMARK  123  A    between atoms: _300  and  _301
REMARK  124  A    between atoms: _301  and  _302
REMARK  125  A    between atoms: _306  and  _308
REMARK  126  A    between atoms: _308  and  _309
REMARK  127  A    between atoms: _308  and  _311
REMARK  128  A    between atoms: _311  and  _312
REMARK  129  A    between atoms: _315  and  _317
REMARK  130  A    between atoms: _317  and  _318
REMARK  131  A    between atoms: _317  and  _320
REMARK  132  A    between atoms: _320  and  _321
REMARK  133  A    between atoms: _321  and  _322
REMARK  134  A    between atoms: _327  and  _329
REMARK  135  A    between atoms: _329  and  _330
REMARK  136  A    between atoms: _329  and  _332
REMARK  137  A    between atoms: _332  and  _333
REMARK  138  A    between atoms: _336  and  _338
REMARK  139  A    between atoms: _338  and  _339
REMARK  140  A    between atoms: _338  and  _341
REMARK  141  A    between atoms: _341  and  _342
REMARK  142  A    between atoms: _347  and  _348
REMARK  143  A    between atoms: _350  and  _352
REMARK  144  A    between atoms: _352  and  _353
REMARK  145  A    between atoms: _352  and  _355
REMARK  146  A    between atoms: _355  and  _356
REMARK  147  A    between atoms: _359  and  _361
REMARK  148  A    between atoms: _361  and  _362
REMARK  149  A    between atoms: _361  and  _364
REMARK  150  A    between atoms: _366  and  _368
REMARK  151  A    between atoms: _368  and  _369
REMARK  152  A    between atoms: _372  and  _374
REMARK  153  A    between atoms: _374  and  _375
REMARK  154  A    between atoms: _374  and  _377
REMARK  155  A    between atoms: _377  and  _378
REMARK  156  A    between atoms: _378  and  _379
REMARK  157  A    between atoms: _379  and  _380
REMARK  158  A    between atoms: _380  and  _381
REMARK  159  A    between atoms: _385  and  _387
REMARK  160  A    between atoms: _387  and  _388
REMARK  161  A    between atoms: _387  and  _390
REMARK  162  A    between atoms: _390  and  _391
REMARK  163  A    between atoms: _394  and  _396
REMARK  164  A    between atoms: _396  and  _397
REMARK  165  A    between atoms: _400  and  _402
REMARK  166  A    between atoms: _402  and  _403
REMARK  167  A    between atoms: _402  and  _405
REMARK  168  A    between atoms: _405  and  _406
REMARK  169  A    between atoms: _406  and  _520
REMARK  170  A    between atoms: _407  and  _409
REMARK  171  A    between atoms: _409  and  _410
REMARK  172  A    between atoms: _409  and  _412
REMARK  173  A    between atoms: _412  and  _413
REMARK  174  A    between atoms: _413  and  _414
REMARK  175  A    between atoms: _414  and  _415
REMARK  176  A    between atoms: _415  and  _416
REMARK  177  A    between atoms: _420  and  _422
REMARK  178  A    between atoms: _422  and  _423
REMARK  179  A    between atoms: _425  and  _427
REMARK  180  A    between atoms: _427  and  _428
REMARK  181  A    between atoms: _427  and  _430
REMARK  182  A    between atoms: _430  and  _431
REMARK  183  A    between atoms: _434  and  _436
REMARK  184  A    between atoms: _436  and  _437
REMARK  185  A    between atoms: _436  and  _439
REMARK  186  A    between atoms: _439  and  _440
REMARK  187  A    between atoms: _442  and  _444
REMARK  188  A    between atoms: _444  and  _445
REMARK  189  A    between atoms: _447  and  _449
REMARK  190  A    between atoms: _449  and  _450
REMARK  191  A    between atoms: _452  and  _454
REMARK  192  A    between atoms: _454  and  _455
REMARK  193  A    between atoms: _454  and  _457
REMARK  194  A    between atoms: _457  and  _458
REMARK  195  A    between atoms: _461  and  _463
REMARK  196  A    between atoms: _463  and  _464
REMARK  197  A    between atoms: _463  and  _466
REMARK  198  A    between atoms: _466  and  _467
REMARK  199  A    between atoms: _470  and  _472
REMARK  200  A    between atoms: _472  and  _473
REMARK  201  A    between atoms: _472  and  _475
REMARK  202  A    between atoms: _475  and  _476
REMARK  203  A    between atoms: _478  and  _480
REMARK  204  A    between atoms: _480  and  _481
REMARK  205  A    between atoms: _480  and  _483
REMARK  206  A    between atoms: _483  and  _484
REMARK  207  A    between atoms: _494  and  _496
REMARK  208  A    between atoms: _496  and  _497
REMARK  209  A    between atoms: _499  and  _501
REMARK  210  A    between atoms: _501  and  _502
REMARK  211  A    between atoms: _501  and  _504
REMARK  212  A    between atoms: _504  and  _505
REMARK  213  A    between atoms: _505  and  _506
REMARK  214  A    between atoms: _509  and  _511
REMARK  215  A    between atoms: _511  and  _512
REMARK  216  A    between atoms: _514  and  _516
REMARK  217  A    between atoms: _516  and  _517
REMARK  218  A    between atoms: _516  and  _519
REMARK  219  A    between atoms: _519  and  _520
REMARK  220  A    between atoms: _521  and  _523
REMARK  221  A    between atoms: _523  and  _524
REMARK  222  A    between atoms: _527  and  _529
REMARK  223  A    between atoms: _529  and  _530
REMARK  224  A    between atoms: _529  and  _532
REMARK  225  A    between atoms: _532  and  _533
REMARK  226  A    between atoms: _533  and  _534
REMARK  227  A    between atoms: _539  and  _541
REMARK  228  A    between atoms: _541  and  _542
REMARK  229  A    between atoms: _541  and  _544
REMARK  230  A    between atoms: _544  and  _545
REMARK  231  A    between atoms: _545  and  _546
REMARK  232  A    between atoms: _546  and  _547
REMARK  233  A    between atoms: _557  and  _558
REMARK  234  A    between atoms: _563  and  _565
REMARK  235  A    between atoms: _565  and  _566
REMARK  236  A    between atoms: _568  and  _570
REMARK  237  A    between atoms: _570  and  _571
REMARK  238  A    between atoms: _570  and  _573
REMARK  239  A    between atoms: _576  and  _578
REMARK  240  A    between atoms: _578  and  _579
REMARK  241  A    between atoms: _578  and  _581
REMARK  242  A    between atoms: _581  and  _582
REMARK  243  A    between atoms: _587  and  _588
REMARK  244  A    between atoms: _590  and  _592
REMARK  245  A    between atoms: _592  and  _593
REMARK  246  A    between atoms: _592  and  _595
REMARK  247  A    between atoms: _595  and  _596
REMARK                            x       y       z     vdW  Elec       q    Type
REMARK                         _______ _______ _______ _____ _____    ______ ____
ROOT
ATOM      1  C   ILE A   1      25.679 -12.866  30.046  0.00  0.00    +0.238 C 
ATOM      2  O   ILE A   1      26.735 -13.460  30.201  0.00  0.00    -0.274 OA
ATOM      3  N   CYS A   2      25.592 -11.656  29.489  0.00  0.00    -0.297 N 
ATOM      4  H   CYS A   2      24.655 -11.215  29.394  0.00  0.00    +0.150 HD
ENDROOT
BRANCH   1   5
ATOM      5  CA  ILE A   1      24.377 -13.535  30.435  0.00  0.00    +0.145 C 
BRANCH   5   6
ATOM      6  N   ILE A   1      24.465 -14.906  29.943  0.00  0.00    -0.238 NA
ATOM      7  H   ILE A   1      25.337 -15.443  30.120  0.00  0.00    +0.142 HD
ENDBRANCH   5   6
BRANCH   5   8
ATOM      8  CB  ILE A   1      24.030 -13.422  31.937  0.00  0.00    +0.025 C 
ATOM      9  CG2 ILE A   1      25.069 -14.104  32.877  0.00  0.00    +0.002 C 
BRANCH   8  10
ATOM     10  CG1 ILE A   1      23.741 -11.943  32.346  0.00  0.00    +0.002 C 
ATOM     11  CD1 ILE A   1      23.004 -11.852  33.754  0.00  0.00    +0.000 C 
ENDBRANCH   8  10
ENDBRANCH   5   8
ENDBRANCH   1   5
BRANCH   3  12
ATOM     12  CA  CYS A   2      26.751 -10.937  29.014  0.00  0.00    +0.160 C 
BRANCH  12  13
ATOM     13  C   CYS A   2      27.129  -9.781  29.884  0.00  0.00    +0.242 C 
ATOM     14  O   CYS A   2      26.263  -9.165  30.520  0.00  0.00    -0.273 OA
ATOM     15  N   ALA A   3      28.419  -9.457  29.893  0.00  0.00    -0.298 N 
ATOM     16  H   ALA A   3      29.093  -9.998  29.315  0.00  0.00    +0.150 HD
BRANCH  15  17
ATOM     17  CA  ALA A   3      28.897  -8.331  30.722  0.00  0.00    +0.137 C 
ATOM     18  CB  ALA A   3      29.228  -8.810  32.137  0.00  0.00    +0.030 C 
BRANCH  17  19
ATOM     19  C   ALA A   3      30.114  -7.706  30.095  0.00  0.00    +0.227 C 
ATOM     20  O   ALA A   3      30.988  -8.403  29.584  0.00  0.00    -0.286 OA
ENDBRANCH  17  19
ENDBRANCH  15  17
ENDBRANCH  12  13
BRANCH  12  21
ATOM     21  CB  CYS A   2      26.537 -10.507  27.572  0.00  0.00    +0.098 C 
ATOM     22  SG  CYS A   2      26.079 -11.884  26.487  0.00  0.00    -0.080 S 
ENDBRANCH  12  21
ENDBRANCH   3  12
TORSDOF 9
REMARK  Name = ../refined-set-2016/4y8x/4y8x_pocket.pdb
REMARK  247 active torsions:
REMARK  status: ('A' for Active; 'I' for Inactive)
REMARK    1  A    between atoms: _1  and  _5
REMARK    2  A    between atoms: _5  and  _6
REMARK    3  A    between atoms: _5  and  _8
REMARK    4  A    between atoms: _8  and  _9
REMARK    5  A    between atoms: _12  and  _14
REMARK    6  A    between atoms: _14  and  _15
REMARK    7  A    between atoms: _14  and  _17
REMARK    8  A    between atoms: _20  and  _22
REMARK    9  A    between atoms: _22  and  _23
REMARK   10  A    between atoms: _22  and  _25
REMARK   11  A    between atoms: _25  and  _26
REMARK   12  A    between atoms: _29  and  _31
REMARK   13  A    between atoms: _31  and  _32
REMARK   14  A    between atoms: _31  and  _34
REMARK   15  A    between atoms: _34  and  _35
REMARK   16  A    between atoms: _38  and  _40
REMARK   17  A    between atoms: _40  and  _41
REMARK   18  A    between atoms: _40  and  _43
REMARK   19  A    between atoms: _43  and  _44
REMARK   20  A    between atoms: _49  and  _51
REMARK   21  A    between atoms: _51  and  _52
REMARK   22  A    between atoms: _51  and  _54
REMARK   23  A    between atoms: _54  and  _55
REMARK   24  A    between atoms: _58  and  _60
REMARK   25  A    between atoms: _60  and  _61
REMARK   26  A    between atoms: _60  and  _63
REMARK   27  A    between atoms: _63  and  _64
REMARK   28  A    between atoms: _67  and  _69
REMARK   29  A    between atoms: _69  and  _70
REMARK   30  A    between atoms: _69  and  _72
REMARK   31  A    between atoms: _72  and  _73
REMARK   32  A    between atoms: _73  and  _74
REMARK   33  A    between atoms: _79  and  _81
REMARK   34  A    between atoms: _81  and  _82
REMARK   35  A    between atoms: _81  and  _84
REMARK   36  A    between atoms: _84  and  _85
REMARK   37  A    between atoms: _85  and  _86
REMARK   38  A    between atoms: _86  and  _87
REMARK   39  A    between atoms: _96  and  _98
REMARK   40  A    between atoms: _98  and  _99
REMARK   41  A    between atoms: _98  and  _101
REMARK   42  A    between atoms: _101  and  _102
REMARK   43  A    between atoms: _107  and  _109
REMARK   44  A    between atoms: _109  and  _110
REMARK   45  A    between atoms: _109  and  _112
REMARK   46  A    between atoms: _112  and  _113
REMARK   47  A    between atoms: _116  and  _118
REMARK   48  A    between atoms: _118  and  _119
REMARK   49  A    between atoms: _118  and  _121
REMARK   50  A    between atoms: _121  and  _122
REMARK   51  A    between atoms: _122  and  _157
REMARK   52  A    between atoms: _123  and  _125
REMARK   53  A    between atoms: _125  and  _126
REMARK   54  A    between atoms: _128  and  _130
REMARK   55  A    between atoms: _130  and  _131
REMARK   56  A    between atoms: _134  and  _136
REMARK   57  A    between atoms: _136  and  _137
REMARK   58  A    between atoms: _140  and  _142
REMARK   59  A    between atoms: _142  and  _143
REMARK   60  A    between atoms: _142  and  _145
REMARK   61  A    between atoms: _145  and  _146
REMARK   62  A    between atoms: _151  and  _153
REMARK   63  A    between atoms: _153  and  _154
REMARK   64  A    between atoms: _153  and  _156
REMARK   65  A    between atoms: _156  and  _157
REMARK   66  A    between atoms: _158  and  _160
REMARK   67  A    between atoms: _160  and  _161
REMARK   68  A    between atoms: _160  and  _163
REMARK   69  A    between atoms: _163  and  _164
REMARK   70  A    between atoms: _170  and  _172
REMARK   71  A    between atoms: _172  and  _173
REMARK   72  A    between atoms: _172  and  _175
REMARK   73  A    between atoms: _175  and  _176
REMARK   74  A    between atoms: _181  and  _182
REMARK   75  A    between atoms: _184  and  _186
REMARK   76  A    between atoms: _186  and  _187
REMARK   77  A    between atoms: _186  and  _189
REMARK   78  A    between atoms: _192  and  _194
REMARK   79  A    between atoms: _194  and  _195
REMARK   80  A    between atoms: _194  and  _197
REMARK   81  A    between atoms: _197  and  _198
REMARK   82  A    between atoms: _198  and  _199
REMARK   83  A    between atoms: _204  and  _206
REMARK   84  A    between atoms: _206  and  _207
REMARK   85  A    between atoms: _210  and  _212
REMARK   86  A    between atoms: _212  and  _213
REMARK   87  A    between atoms: _212  and  _215
REMARK   88  A    between atoms: _215  and  _216
REMARK   89  A    between atoms: _219  and  _221
REMARK   90  A    between atoms: _221  and  _222
REMARK   91  A    between atoms: _221  and  _224
REMARK   92  A    between atoms: _227  and  _229
REMARK   93  A    between atoms: _229  and  _230
REMARK   94  A    between atoms: _229  and  _232
REMARK   95  A    between atoms: _232  and  _233
REMARK   96  A    between atoms: _243  and  _245
REMARK   97  A    between atoms: _245  and  _246
REMARK   98  A    between atoms: _248  and  _250
REMARK   99  A    between atoms: _250  and  _251
REMARK  100  A    between atoms: _250  and  _253
REMARK  101  A    between atoms: _253  and  _254
REMARK  102  A    between atoms: _259  and  _260
REMARK  103  A    between atoms: _262  and  _264
REMARK  104  A    between atoms: _264  and  _265
REMARK  105  A    between atoms: _264  and  _267
REMARK  106  A    between atoms: _267  and  _268
REMARK  107  A    between atoms: _268  and  _269
REMARK  108  A    between atoms: _269  and  _270
REMARK  109  A    between atoms: _270  and  _271
REMARK  110  A    between atoms: _275  and  _277
REMARK  111  A    between atoms: _277  and  _278
REMARK  112  A    between atoms: _277  and  _280
REMARK  113  A    between atoms: _280  and  _281
REMARK  114  A    between atoms: _284  and  _286
REMARK  115  A    between atoms: _286  and  _287
REMARK  116  A    between atoms: _286  and  _289
REMARK  117  A    between atoms: _289  and  _290
REMARK  118  A    between atoms: _293  and  _295
REMARK  119  A    between atoms: _295  and  _296
REMARK  120  A    between atoms: _295  and  _298
REMARK  121  A    between atoms: _298  and  _299
REMARK  122  A    between atoms: _299  and  _300
REMARK  123  A    between atoms: _300  and  _301
REMARK  124  A    between atoms: _301  and  _302
REMARK  125  A    between atoms: _306  and  _308
REMARK  126  A    between atoms: _308  and  _309
REMARK  127  A    between atoms: _308  and  _311
REMARK  128  A    between atoms: _311  and  _312
REMARK  129  A    between atoms: _315  and  _317
REMARK  130  A    between atoms: _317  and  _318
REMARK  131  A    between atoms: _317  and  _320
REMARK  132  A    between atoms: _320  and  _321
REMARK  133  A    between atoms: _321  and  _322
REMARK  134  A    between atoms: _327  and  _329
REMARK  135  A    between atoms: _329  and  _330
REMARK  136  A    between atoms: _329  and  _332
REMARK  137  A    between atoms: _332  and  _333
REMARK  138  A    between atoms: _336  and  _338
REMARK  139  A    between atoms: _338  and  _339
REMARK  140  A    between atoms: _338  and  _341
REMARK  141  A    between atoms: _341  and  _342
REMARK  142  A    between atoms: _347  and  _348
REMARK  143  A    between atoms: _350  and  _352
REMARK  144  A    between atoms: _352  and  _353
REMARK  145  A    between atoms: _352  and  _355
REMARK  146  A    between atoms: _355  and  _356
REMARK  147  A    between atoms: _359  and  _361
REMARK  148  A    between atoms: _361  and  _362
REMARK  149  A    between atoms: _361  and  _364
REMARK  150  A    between atoms: _366  and  _368
REMARK  151  A    between atoms: _368  and  _369
REMARK  152  A    between atoms: _372  and  _374
REMARK  153  A    between atoms: _374  and  _375
REMARK  154  A    between atoms: _374  and  _377
REMARK  155  A    between atoms: _377  and  _378
REMARK  156  A    between atoms: _378  and  _379
REMARK  157  A    between atoms: _379  and  _380
REMARK  158  A    between atoms: _380  and  _381
REMARK  159  A    between atoms: _385  and  _387
REMARK  160  A    between atoms: _387  and  _388
REMARK  161  A    between atoms: _387  and  _390
REMARK  162  A    between atoms: _390  and  _391
REMARK  163  A    between atoms: _394  and  _396
REMARK  164  A    between atoms: _396  and  _397
REMARK  165  A    between atoms: _400  and  _402
REMARK  166  A    between atoms: _402  and  _403
REMARK  167  A    between atoms: _402  and  _405
REMARK  168  A    between atoms: _405  and  _406
REMARK  169  A    between atoms: _406  and  _520
REMARK  170  A    between atoms: _407  and  _409
REMARK  171  A    between atoms: _409  and  _410
REMARK  172  A    between atoms: _409  and  _412
REMARK  173  A    between atoms: _412  and  _413
REMARK  174  A    between atoms: _413  and  _414
REMARK  175  A    between atoms: _414  and  _415
REMARK  176  A    between atoms: _415  and  _416
REMARK  177  A    between atoms: _420  and  _422
REMARK  178  A    between atoms: _422  and  _423
REMARK  179  A    between atoms: _425  and  _427
REMARK  180  A    between atoms: _427  and  _428
REMARK  181  A    between atoms: _427  and  _430
REMARK  182  A    between atoms: _430  and  _431
REMARK  183  A    between atoms: _434  and  _436
REMARK  184  A    between atoms: _436  and  _437
REMARK  185  A    between atoms: _436  and  _439
REMARK  186  A    between atoms: _439  and  _440
REMARK  187  A    between atoms: _442  and  _444
REMARK  188  A    between atoms: _444  and  _445
REMARK  189  A    between atoms: _447  and  _449
REMARK  190  A    between atoms: _449  and  _450
REMARK  191  A    between atoms: _452  and  _454
REMARK  192  A    between atoms: _454  and  _455
REMARK  193  A    between atoms: _454  and  _457
REMARK  194  A    between atoms: _457  and  _458
REMARK  195  A    between atoms: _461  and  _463
REMARK  196  A    between atoms: _463  and  _464
REMARK  197  A    between atoms: _463  and  _466
REMARK  198  A    between atoms: _466  and  _467
REMARK  199  A    between atoms: _470  and  _472
REMARK  200  A    between atoms: _472  and  _473
REMARK  201  A    between atoms: _472  and  _475
REMARK  202  A    between atoms: _475  and  _476
REMARK  203  A    between atoms: _478  and  _480
REMARK  204  A    between atoms: _480  and  _481
REMARK  205  A    between atoms: _480  and  _483
REMARK  206  A    between atoms: _483  and  _484
REMARK  207  A    between atoms: _494  and  _496
REMARK  208  A    between atoms: _496  and  _497
REMARK  209  A    between atoms: _499  and  _501
REMARK  210  A    between atoms: _501  and  _502
REMARK  211  A    between atoms: _501  and  _504
REMARK  212  A    between atoms: _504  and  _505
REMARK  213  A    between atoms: _505  and  _506
REMARK  214  A    between atoms: _509  and  _511
REMARK  215  A    between atoms: _511  and  _512
REMARK  216  A    between atoms: _514  and  _516
REMARK  217  A    between atoms: _516  and  _517
REMARK  218  A    between atoms: _516  and  _519
REMARK  219  A    between atoms: _519  and  _520
REMARK  220  A    between atoms: _521  and  _523
REMARK  221  A    between atoms: _523  and  _524
REMARK  222  A    between atoms: _527  and  _529
REMARK  223  A    between atoms: _529  and  _530
REMARK  224  A    between atoms: _529  and  _532
REMARK  225  A    between atoms: _532  and  _533
REMARK  226  A    between atoms: _533  and  _534
REMARK  227  A    between atoms: _539  and  _541
REMARK  228  A    between atoms: _541  and  _542
REMARK  229  A    between atoms: _541  and  _544
REMARK  230  A    between atoms: _544  and  _545
REMARK  231  A    between atoms: _545  and  _546
REMARK  232  A    between atoms: _546  and  _547
REMARK  233  A    between atoms: _557  and  _558
REMARK  234  A    between atoms: _563  and  _565
REMARK  235  A    between atoms: _565  and  _566
REMARK  236  A    between atoms: _568  and  _570
REMARK  237  A    between atoms: _570  and  _571
REMARK  238  A    between atoms: _570  and  _573
REMARK  239  A    between atoms: _576  and  _578
REMARK  240  A    between atoms: _578  and  _579
REMARK  241  A    between atoms: _578  and  _581
REMARK  242  A    between atoms: _581  and  _582
REMARK  243  A    between atoms: _587  and  _588
REMARK  244  A    between atoms: _590  and  _592
REMARK  245  A    between atoms: _592  and  _593
REMARK  246  A    between atoms: _592  and  _595
REMARK  247  A    between atoms: _595  and  _596
REMARK                            x       y       z     vdW  Elec       q    Type
REMARK                         _______ _______ _______ _____ _____    ______ ____
ROOT
ATOM      1  CA  CYS A   8      39.618 -10.112  25.688  0.00  0.00    +0.160 C 
ENDROOT
BRANCH   1   2
ATOM      2  C   CYS A   8      39.402  -8.620  25.782  0.00  0.00    +0.242 C 
ATOM      3  N   ALA A   9      38.338  -8.192  26.443  0.00  0.00    -0.297 N 
ATOM      4  H   ALA A   9      37.676  -8.910  26.801  0.00  0.00    +0.150 HD
ATOM      5  O   CYS A   8      40.217  -7.882  25.246  0.00  0.00    -0.273 OA
BRANCH   3   6
ATOM      6  CA  ALA A   9      38.021  -6.792  26.709  0.00  0.00    +0.149 C 
ATOM      7  CB  ALA A   9      39.017  -6.229  27.732  0.00  0.00    +0.031 C 
BRANCH   6   8
ATOM      8  C   ALA A   9      38.014  -5.928  25.451  0.00  0.00    +0.241 C 
ATOM      9  O   ALA A   9      38.386  -4.752  25.509  0.00  0.00    -0.273 OA
ATOM     10  N   GLN A  10      37.619  -6.501  24.304  0.00  0.00    -0.298 N 
ATOM     11  H   GLN A  10      37.340  -7.502  24.274  0.00  0.00    +0.150 HD
BRANCH  10  12
ATOM     12  CA  GLN A  10      37.593  -5.672  23.092  0.00  0.00    +0.137 C 
BRANCH  12  13
ATOM     13  C   GLN A  10      36.343  -4.811  23.092  0.00  0.00    +0.227 C 
ATOM     14  O   GLN A  10      35.326  -5.180  23.656  0.00  0.00    -0.286 OA
ENDBRANCH  12  13
BRANCH  12  15
ATOM     15  CB  GLN A  10      37.608  -6.530  21.822  0.00  0.00    +0.037 C 
BRANCH  15  16
ATOM     16  CG  GLN A  10      38.790  -7.487  21.767  0.00  0.00    +0.087 C 
BRANCH  16  17
ATOM     17  CD  GLN A  10      38.983  -7.928  20.353  0.00  0.00    +0.219 C 
ATOM     18  NE2 GLN A  10      38.289  -8.984  19.966  0.00  0.00    -0.329 N 
ATOM     19 HE21 GLN A  10      37.707  -9.504  20.653  0.00  0.00    +0.145 HD
ATOM     20 HE22 GLN A  10      38.325  -9.295  18.974  0.00  0.00    +0.145 HD
ATOM     21  OE1 GLN A  10      39.688  -7.277  19.579  0.00  0.00    -0.275 OA
ENDBRANCH  16  17
ENDBRANCH  15  16
ENDBRANCH  12  15
ENDBRANCH  10  12
ENDBRANCH   6   8
ENDBRANCH   3   6
ENDBRANCH   1   2
BRANCH   1  22
ATOM     22  N   CYS A   8      39.771 -10.539  24.291  0.00  0.00    -0.296 N 
ATOM     23  C   GLY A   7      39.001 -11.484  23.770  0.00  0.00    +0.243 C 
ATOM     24  O   GLY A   7      38.103 -12.029  24.420  0.00  0.00    -0.273 OA
ATOM     25  H   CYS A   8      40.499 -10.091  23.698  0.00  0.00    +0.150 HD
BRANCH  23  26
ATOM     26  CA  GLY A   7      39.236 -11.891  22.324  0.00  0.00    +0.176 C 
BRANCH  26  27
ATOM     27  N   GLY A   7      38.068 -12.624  21.823  0.00  0.00    -0.295 N 
ATOM     28  H   GLY A   7      38.160 -13.644  21.644  0.00  0.00    +0.150 HD
ATOM     29  C   GLU A   6      36.900 -12.041  21.588  0.00  0.00    +0.241 C 
ATOM     30  O   GLU A   6      36.685 -10.826  21.756  0.00  0.00    -0.273 OA
BRANCH  29  31
ATOM     31  CA  GLU A   6      35.763 -12.966  21.139  0.00  0.00    +0.149 C 
BRANCH  31  32
ATOM     32  N   GLU A   6      34.887 -13.088  22.310  0.00  0.00    -0.297 N 
ATOM     33  C   GLY A   5      35.093 -14.082  23.182  0.00  0.00    +0.243 C 
ATOM     34  O   GLY A   5      35.930 -14.963  23.000  0.00  0.00    -0.273 OA
ATOM     35  H   GLU A   6      34.114 -12.409  22.461  0.00  0.00    +0.150 HD
BRANCH  33  36
ATOM     36  CA  GLY A   5      34.221 -14.135  24.411  0.00  0.00    +0.176 C 
BRANCH  36  37
ATOM     37  N   GLY A   5      34.367 -15.458  25.029  0.00  0.00    -0.295 N 
ATOM     38  C   TRP A   4      33.579 -15.843  26.006  0.00  0.00    +0.241 C 
ATOM     39  O   TRP A   4      32.715 -15.115  26.482  0.00  0.00    -0.273 OA
ATOM     40  H   GLY A   5      35.108 -16.102  24.687  0.00  0.00    +0.150 HD
BRANCH  38  41
ATOM     41  CA  TRP A   4      33.765 -17.293  26.490  0.00  0.00    +0.153 C 
BRANCH  41  42
ATOM     42  N   TRP A   4      33.006 -17.569  27.721  0.00  0.00    -0.297 N 
ATOM     43  C   SER A   3      33.393 -18.570  28.509  0.00  0.00    +0.243 C 
ATOM     44  O   SER A   3      34.406 -19.240  28.289  0.00  0.00    -0.273 OA
ATOM     45  H   TRP A   4      32.179 -16.990  27.972  0.00  0.00    +0.150 HD
BRANCH  43  46
ATOM     46  CA  SER A   3      32.566 -18.889  29.748  0.00  0.00    +0.178 C 
BRANCH  46  47
ATOM     47  N   SER A   3      32.640 -17.873  30.775  0.00  0.00    -0.295 N 
ATOM     48  C   THR A   2      33.069 -18.204  32.018  0.00  0.00    +0.243 C 
ATOM     49  O   THR A   2      33.536 -19.304  32.301  0.00  0.00    -0.273 OA
ATOM     50  H   SER A   3      32.365 -16.893  30.561  0.00  0.00    +0.150 HD
BRANCH  48  51
ATOM     51  CA  THR A   2      32.970 -17.135  33.088  0.00  0.00    +0.176 C 
BRANCH  51  52
ATOM     52  N   THR A   2      32.124 -17.588  34.212  0.00  0.00    -0.295 N 
ATOM     53  H   THR A   2      32.511 -17.549  35.176  0.00  0.00    +0.150 HD
ATOM     54  C   ILE A   1      30.873 -18.048  34.036  0.00  0.00    +0.238 C 
ATOM     55  O   ILE A   1      30.342 -18.156  32.926  0.00  0.00    -0.274 OA
BRANCH  54  56
ATOM     56  CA  ILE A   1      30.118 -18.517  35.284  0.00  0.00    +0.145 C 
BRANCH  56  57
ATOM     57  CB  ILE A   1      29.871 -20.044  35.226  0.00  0.00    +0.025 C 
ATOM     58  CG2 ILE A   1      31.227 -20.781  35.162  0.00  0.00    +0.002 C 
BRANCH  57  59
ATOM     59  CG1 ILE A   1      29.017 -20.539  36.426  0.00  0.00    +0.002 C 
ATOM     60  CD1 ILE A   1      28.476 -22.003  36.147  0.00  0.00    +0.000 C 
ENDBRANCH  57  59
ENDBRANCH  56  57
BRANCH  56  61
ATOM     61  N   ILE A   1      28.909 -17.720  35.298  0.00  0.00    -0.238 NA
ATOM     62  H   ILE A   1      28.255 -17.797  34.493  0.00  0.00    +0.142 HD
ENDBRANCH  56  61
ENDBRANCH  54  56
ENDBRANCH  51  52
BRANCH  51  63
ATOM     63  CB  THR A   2      34.330 -16.691  33.616  0.00  0.00    +0.137 C 
ATOM     64  CG2 THR A   2      35.259 -16.200  32.478  0.00  0.00    +0.034 C 
BRANCH  63  65
ATOM     65  OG1 THR A   2      34.104 -15.684  34.616  0.00  0.00    -0.382 OA
ATOM     66  HG1 THR A   2      34.974 -15.377  34.976  0.00  0.00    +0.210 HD
ENDBRANCH  63  65
ENDBRANCH  51  63
ENDBRANCH  48  51
ENDBRANCH  46  47
BRANCH  46  67
ATOM     67  CB  SER A   3      31.086 -19.166  29.416  0.00  0.00    +0.166 C 
BRANCH  67  68
ATOM     68  OG  SER A   3      30.887 -20.218  28.483  0.00  0.00    -0.380 OA
ATOM     69  H   SER A   3      31.266 -21.057  28.847  0.00  0.00    +0.211 HD
ENDBRANCH  67  68
ENDBRANCH  46  67
ENDBRANCH  43  46
ENDBRANCH  41  42
BRANCH  41  70
ATOM     70  CB  TRP A   4      33.322 -18.287  25.383  0.00  0.00    +0.057 C 
BRANCH  70  71
ATOM     71  CG  TRP A   4      31.882 -18.127  24.972  0.00  0.00    -0.002 A 
ATOM     72  CD1 TRP A   4      30.788 -18.664  25.588  0.00  0.00    +0.068 A 
ATOM     73  NE1 TRP A   4      29.641 -18.263  24.943  0.00  0.00    -0.352 N 
ATOM     74  HE1 TRP A   4      28.671 -18.499  25.234  0.00  0.00    +0.166 HD
ATOM     75  CE2 TRP A   4      29.982 -17.502  23.854  0.00  0.00    +0.056 A 
ATOM     76  CZ2 TRP A   4      29.174 -16.901  22.874  0.00  0.00    +0.017 A 
ATOM     77  CH2 TRP A   4      29.810 -16.169  21.886  0.00  0.00    +0.001 A 
ATOM     78  CZ3 TRP A   4      31.204 -16.013  21.869  0.00  0.00    +0.000 A 
ATOM     79  CE3 TRP A   4      32.002 -16.587  22.856  0.00  0.00    +0.001 A 
ATOM     80  CD2 TRP A   4      31.386 -17.372  23.857  0.00  0.00    +0.013 A 
ENDBRANCH  70  71
ENDBRANCH  41  70
ENDBRANCH  38  41
ENDBRANCH  36  37
ENDBRANCH  33  36
ENDBRANCH  31  32
BRANCH  31  81
ATOM     81  CB  GLU A   6      35.020 -12.367  19.922  0.00  0.00    +0.041 C 
BRANCH  81  82
ATOM     82  CG  GLU A   6      35.920 -12.272  18.685  0.00  0.00    +0.116 C 
BRANCH  82  83
ATOM     83  CD  GLU A   6      36.605 -13.573  18.287  0.00  0.00    +0.365 C 
ATOM     84  OE2 GLU A   6      37.854 -13.599  18.212  0.00  0.00    -0.246 OA
ATOM     85  OE1 GLU A   6      35.894 -14.590  18.136  0.00  0.00    -0.246 OA
ENDBRANCH  82  83
ENDBRANCH  81  82
ENDBRANCH  31  81
ENDBRANCH  29  31
ENDBRANCH  26  27
ENDBRANCH  23  26
ENDBRANCH   1  22
BRANCH   1  86
ATOM     86  CB  CYS A   8      40.825 -10.535  26.520  0.00  0.00    +0.098 C 
BRANCH  86  87
ATOM     87  SG  CYS A   8      41.063 -12.322  26.627  0.00  0.00    -0.080 S 
BRANCH  87  88
ATOM     88  SG  TRP A   4      42.508 -12.668  28.010  0.00  0.00    -0.080 S 
BRANCH  88  89
ATOM     89  CB  TRP A   4      41.794 -12.599  29.677  0.00  0.00    +0.098 C 
BRANCH  89  90
ATOM     90  CA  TRP A   4      40.628 -13.568  29.882  0.00  0.00    +0.160 C 
BRANCH  90  91
ATOM     91  C   TRP A   4      41.083 -15.000  30.171  0.00  0.00    +0.242 C 
ATOM     92  O   TRP A   4      40.542 -15.628  31.077  0.00  0.00    -0.273 OA
ATOM     93  N   GLY A   5      41.982 -15.565  29.376  0.00  0.00    -0.297 N 
ATOM     94  H   GLY A   5      42.372 -14.988  28.604  0.00  0.00    +0.150 HD
BRANCH  93  95
ATOM     95  CA  GLY A   5      42.467 -16.945  29.505  0.00  0.00    +0.149 C 
BRANCH  95  96
ATOM     96  C   GLY A   5      42.917 -17.282  30.928  0.00  0.00    +0.241 C 
ATOM     97  O   GLY A   5      43.746 -16.567  31.500  0.00  0.00    -0.273 OA
ATOM     98  N   GLU A   6      42.349 -18.337  31.500  0.00  0.00    -0.295 N 
ATOM     99  H   GLU A   6      41.654 -18.891  30.959  0.00  0.00    +0.150 HD
BRANCH  98 100
ATOM    100  CA  GLU A   6      42.671 -18.745  32.870  0.00  0.00    +0.176 C 
BRANCH 100 101
ATOM    101  C   GLU A   6      41.602 -18.321  33.860  0.00  0.00    +0.243 C 
ATOM    102  O   GLU A   6      41.580 -18.808  35.000  0.00  0.00    -0.273 OA
ATOM    103  N   GLY A   7      40.658 -17.462  33.410  0.00  0.00    -0.296 N 
ATOM    104  H   GLY A   7      40.714 -17.104  32.435  0.00  0.00    +0.150 HD
BRANCH 103 105
ATOM    105  CA  GLY A   7      39.551 -17.026  34.283  0.00  0.00    +0.160 C 
BRANCH 105 106
ATOM    106  C   GLY A   7      38.320 -17.891  34.149  0.00  0.00    +0.241 C 
ATOM    107  O   GLY A   7      37.434 -17.812  35.007  0.00  0.00    -0.273 OA
ATOM    108  N   CYS A   8      38.227 -18.683  33.082  0.00  0.00    -0.295 N 
ATOM    109  H   CYS A   8      39.015 -18.764  32.408  0.00  0.00    +0.150 HD
BRANCH 108 110
ATOM    110  CA  CYS A   8      36.981 -19.440  32.880  0.00  0.00    +0.178 C 
BRANCH 110 111
ATOM    111  C   CYS A   8      36.650 -20.362  34.031  0.00  0.00    +0.243 C 
ATOM    112  O   CYS A   8      37.535 -20.815  34.753  0.00  0.00    -0.273 OA
ATOM    113  N   ALA A   9      35.351 -20.546  34.255  0.00  0.00    -0.295 N 
ATOM    114  H   ALA A   9      34.662 -20.081  33.630  0.00  0.00    +0.150 HD
BRANCH 113 115
ATOM    115  CA  ALA A   9      34.862 -21.379  35.348  0.00  0.00    +0.176 C 
BRANCH 115 116
ATOM    116  C   ALA A   9      34.663 -20.578  36.621  0.00  0.00    +0.243 C 
ATOM    117  O   ALA A   9      33.932 -21.014  37.524  0.00  0.00    -0.273 OA
ATOM    118  N   GLN A  10      35.327 -19.412  36.694  0.00  0.00    -0.296 N 
ATOM    119  H   GLN A  10      35.914 -19.117  35.888  0.00  0.00    +0.150 HD
BRANCH 118 120
ATOM    120  CA  GLN A  10      35.253 -18.547  37.862  0.00  0.00    +0.163 C 
BRANCH 120 121
ATOM    121  C   GLN A  10      33.913 -17.822  37.935  0.00  0.00    +0.229 C 
ATOM    122  O   GLN A  10      33.130 -17.843  36.988  0.00  0.00    -0.286 OA
ENDBRANCH 120 121
ENDBRANCH 118 120
ENDBRANCH 115 116
ENDBRANCH 113 115
ENDBRANCH 110 111
BRANCH 110 123
ATOM    123  CB  CYS A   8      36.963 -20.159  31.537  0.00  0.00    +0.166 C 
BRANCH 123 124
ATOM    124  O   CYS A   8      37.867 -21.242  31.560  0.00  0.00    -0.380 OA
ATOM    125  H   CYS A   8      38.780 -20.904  31.738  0.00  0.00    +0.211 HD
ENDBRANCH 123 124
ENDBRANCH 110 123
ENDBRANCH 108 110
ENDBRANCH 105 106
BRANCH 105 126
ATOM    126  CB  GLY A   7      39.139 -15.576  33.981  0.00  0.00    +0.143 C 
BRANCH 126 127
ATOM    127  CG  GLY A   7      40.224 -14.601  34.382  0.00  0.00    +0.367 C 
ATOM    128  OD2 GLY A   7      40.809 -14.787  35.464  0.00  0.00    -0.246 OA
ATOM    129  OD1 GLY A   7      40.480 -13.649  33.603  0.00  0.00    -0.246 OA
ENDBRANCH 126 127
ENDBRANCH 105 126
ENDBRANCH 103 105
ENDBRANCH 100 101
ENDBRANCH  98 100
ENDBRANCH  95  96
BRANCH  95 130
ATOM    130  CB  GLY A   5      43.653 -17.131  28.546  0.00  0.00    +0.029 C 
BRANCH 130 131
ATOM    131  CG  GLY A   5      43.241 -16.998  27.091  0.00  0.00    +0.000 C 
BRANCH 131 132
ATOM    132  CD  GLY A   5      44.488 -16.942  26.209  0.00  0.00    -0.024 C 
BRANCH 132 133
ATOM    133  CE  GLY A   5      44.132 -16.935  24.742  0.00  0.00    -0.086 C 
BRANCH 133 134
ATOM    134  NZ  GLY A   5      45.364 -16.798  23.931  0.00  0.00    +0.380 N 
ATOM    135  HZ1 GLY A   5      45.841 -15.907  24.175  0.00  0.00    -0.089 HD
ATOM    136  HZ2 GLY A   5      45.999 -17.598  24.129  0.00  0.00    -0.089 HD
ATOM    137  HZ3 GLY A   5      45.114 -16.794  22.921  0.00  0.00    -0.089 HD
ENDBRANCH 133 134
ENDBRANCH 132 133
ENDBRANCH 131 132
ENDBRANCH 130 131
ENDBRANCH  95 130
ENDBRANCH  93  95
ENDBRANCH  90  91
BRANCH  90 139
ATOM    138  C   SER A   3      38.703 -12.293  30.695  0.00  0.00    +0.241 C 
ATOM    139  N   TRP A   4      39.717 -13.128  30.929  0.00  0.00    -0.296 N 
ATOM    140  H   TRP A   4      39.862 -13.478  31.897  0.00  0.00    +0.150 HD
ATOM    141  O   SER A   3      38.533 -11.731  29.595  0.00  0.00    -0.273 OA
BRANCH 138 142
ATOM    142  CA  SER A   3      37.768 -11.998  31.883  0.00  0.00    +0.149 C 
ATOM    143  CB  SER A   3      36.769 -13.146  32.074  0.00  0.00    +0.031 C 
BRANCH 142 146
ATOM    144  C   THR A   2      37.611  -9.594  31.675  0.00  0.00    +0.241 C 
ATOM    145  O   THR A   2      38.742  -9.425  32.147  0.00  0.00    -0.273 OA
ATOM    146  N   SER A   3      37.049 -10.795  31.540  0.00  0.00    -0.297 N 
ATOM    147  H   SER A   3      36.075 -10.866  31.181  0.00  0.00    +0.150 HD
BRANCH 144 148
ATOM    148  CA  THR A   2      36.854  -8.462  31.054  0.00  0.00    +0.160 C 
BRANCH 148 150
ATOM    149  C   ILE A   1      36.903  -6.035  31.153  0.00  0.00    +0.238 C 
ATOM    150  N   THR A   2      37.490  -7.187  31.456  0.00  0.00    -0.297 N 
ATOM    151  H   THR A   2      38.392  -7.193  31.973  0.00  0.00    +0.150 HD
ATOM    152  O   ILE A   1      35.829  -5.965  30.543  0.00  0.00    -0.274 OA
BRANCH 149 153
ATOM    153  CA  ILE A   1      37.656  -4.772  31.512  0.00  0.00    +0.145 C 
BRANCH 153 154
ATOM    154  N   ILE A   1      37.723  -3.927  30.305  0.00  0.00    -0.238 NA
ATOM    155  H   ILE A   1      36.860  -3.789  29.741  0.00  0.00    +0.142 HD
ENDBRANCH 153 154
BRANCH 153 156
ATOM    156  CB  ILE A   1      36.955  -4.066  32.679  0.00  0.00    +0.026 C 
BRANCH 156 157
ATOM    157  CG  ILE A   1      37.743  -2.885  33.226  0.00  0.00    -0.000 C 
BRANCH 157 158
ATOM    158  CD  ILE A   1      37.066  -2.275  34.438  0.00  0.00    -0.024 C 
BRANCH 158 159
ATOM    159  CE  ILE A   1      37.827  -1.047  34.884  0.00  0.00    -0.086 C 
BRANCH 159 160
ATOM    160  NZ  ILE A   1      37.420  -0.626  36.251  0.00  0.00    +0.380 N 
ATOM    161  HZ1 ILE A   1      37.613  -1.397  36.922  0.00  0.00    -0.089 HD
ATOM    162  HZ2 ILE A   1      37.960   0.219  36.527  0.00  0.00    -0.089 HD
ATOM    163  HZ3 ILE A   1      36.404  -0.406  36.256  0.00  0.00    -0.089 HD
ENDBRANCH 159 160
ENDBRANCH 158 159
ENDBRANCH 157 158
ENDBRANCH 156 157
ENDBRANCH 153 156
ENDBRANCH 149 153
ENDBRANCH 148 150
BRANCH 148 164
ATOM    164  CB  THR A   2      36.995  -8.624  29.502  0.00  0.00    +0.143 C 
BRANCH 164 165
ATOM    165  CG  THR A   2      36.150  -9.678  28.762  0.00  0.00    +0.367 C 
ATOM    166  OD2 THR A   2      35.251 -10.284  29.398  0.00  0.00    -0.246 OA
ATOM    167  OD1 THR A   2      36.390  -9.889  27.537  0.00  0.00    -0.246 OA
ENDBRANCH 164 165
ENDBRANCH 148 164
ENDBRANCH 144 148
ENDBRANCH 142 146
ENDBRANCH 138 142
ENDBRANCH  90 139
ENDBRANCH  89  90
ENDBRANCH  88  89
ENDBRANCH  87  88
ENDBRANCH  86  87
ENDBRANCH   1  86
TORSDOF 75
REMARK  Name = ../refined-set-2016/4y8x/4y8x_pocket.pdb
REMARK  247 active torsions:
REMARK  status: ('A' for Active; 'I' for Inactive)
REMARK    1  A    between atoms: _1  and  _5
REMARK    2  A    between atoms: _5  and  _6
REMARK    3  A    between atoms: _5  and  _8
REMARK    4  A    between atoms: _8  and  _9
REMARK    5  A    between atoms: _12  and  _14
REMARK    6  A    between atoms: _14  and  _15
REMARK    7  A    between atoms: _14  and  _17
REMARK    8  A    between atoms: _20  and  _22
REMARK    9  A    between atoms: _22  and  _23
REMARK   10  A    between atoms: _22  and  _25
REMARK   11  A    between atoms: _25  and  _26
REMARK   12  A    between atoms: _29  and  _31
REMARK   13  A    between atoms: _31  and  _32
REMARK   14  A    between atoms: _31  and  _34
REMARK   15  A    between atoms: _34  and  _35
REMARK   16  A    between atoms: _38  and  _40
REMARK   17  A    between atoms: _40  and  _41
REMARK   18  A    between atoms: _40  and  _43
REMARK   19  A    between atoms: _43  and  _44
REMARK   20  A    between atoms: _49  and  _51
REMARK   21  A    between atoms: _51  and  _52
REMARK   22  A    between atoms: _51  and  _54
REMARK   23  A    between atoms: _54  and  _55
REMARK   24  A    between atoms: _58  and  _60
REMARK   25  A    between atoms: _60  and  _61
REMARK   26  A    between atoms: _60  and  _63
REMARK   27  A    between atoms: _63  and  _64
REMARK   28  A    between atoms: _67  and  _69
REMARK   29  A    between atoms: _69  and  _70
REMARK   30  A    between atoms: _69  and  _72
REMARK   31  A    between atoms: _72  and  _73
REMARK   32  A    between atoms: _73  and  _74
REMARK   33  A    between atoms: _79  and  _81
REMARK   34  A    between atoms: _81  and  _82
REMARK   35  A    between atoms: _81  and  _84
REMARK   36  A    between atoms: _84  and  _85
REMARK   37  A    between atoms: _85  and  _86
REMARK   38  A    between atoms: _86  and  _87
REMARK   39  A    between atoms: _96  and  _98
REMARK   40  A    between atoms: _98  and  _99
REMARK   41  A    between atoms: _98  and  _101
REMARK   42  A    between atoms: _101  and  _102
REMARK   43  A    between atoms: _107  and  _109
REMARK   44  A    between atoms: _109  and  _110
REMARK   45  A    between atoms: _109  and  _112
REMARK   46  A    between atoms: _112  and  _113
REMARK   47  A    between atoms: _116  and  _118
REMARK   48  A    between atoms: _118  and  _119
REMARK   49  A    between atoms: _118  and  _121
REMARK   50  A    between atoms: _121  and  _122
REMARK   51  A    between atoms: _122  and  _157
REMARK   52  A    between atoms: _123  and  _125
REMARK   53  A    between atoms: _125  and  _126
REMARK   54  A    between atoms: _128  and  _130
REMARK   55  A    between atoms: _130  and  _131
REMARK   56  A    between atoms: _134  and  _136
REMARK   57  A    between atoms: _136  and  _137
REMARK   58  A    between atoms: _140  and  _142
REMARK   59  A    between atoms: _142  and  _143
REMARK   60  A    between atoms: _142  and  _145
REMARK   61  A    between atoms: _145  and  _146
REMARK   62  A    between atoms: _151  and  _153
REMARK   63  A    between atoms: _153  and  _154
REMARK   64  A    between atoms: _153  and  _156
REMARK   65  A    between atoms: _156  and  _157
REMARK   66  A    between atoms: _158  and  _160
REMARK   67  A    between atoms: _160  and  _161
REMARK   68  A    between atoms: _160  and  _163
REMARK   69  A    between atoms: _163  and  _164
REMARK   70  A    between atoms: _170  and  _172
REMARK   71  A    between atoms: _172  and  _173
REMARK   72  A    between atoms: _172  and  _175
REMARK   73  A    between atoms: _175  and  _176
REMARK   74  A    between atoms: _181  and  _182
REMARK   75  A    between atoms: _184  and  _186
REMARK   76  A    between atoms: _186  and  _187
REMARK   77  A    between atoms: _186  and  _189
REMARK   78  A    between atoms: _192  and  _194
REMARK   79  A    between atoms: _194  and  _195
REMARK   80  A    between atoms: _194  and  _197
REMARK   81  A    between atoms: _197  and  _198
REMARK   82  A    between atoms: _198  and  _199
REMARK   83  A    between atoms: _204  and  _206
REMARK   84  A    between atoms: _206  and  _207
REMARK   85  A    between atoms: _210  and  _212
REMARK   86  A    between atoms: _212  and  _213
REMARK   87  A    between atoms: _212  and  _215
REMARK   88  A    between atoms: _215  and  _216
REMARK   89  A    between atoms: _219  and  _221
REMARK   90  A    between atoms: _221  and  _222
REMARK   91  A    between atoms: _221  and  _224
REMARK   92  A    between atoms: _227  and  _229
REMARK   93  A    between atoms: _229  and  _230
REMARK   94  A    between atoms: _229  and  _232
REMARK   95  A    between atoms: _232  and  _233
REMARK   96  A    between atoms: _243  and  _245
REMARK   97  A    between atoms: _245  and  _246
REMARK   98  A    between atoms: _248  and  _250
REMARK   99  A    between atoms: _250  and  _251
REMARK  100  A    between atoms: _250  and  _253
REMARK  101  A    between atoms: _253  and  _254
REMARK  102  A    between atoms: _259  and  _260
REMARK  103  A    between atoms: _262  and  _264
REMARK  104  A    between atoms: _264  and  _265
REMARK  105  A    between atoms: _264  and  _267
REMARK  106  A    between atoms: _267  and  _268
REMARK  107  A    between atoms: _268  and  _269
REMARK  108  A    between atoms: _269  and  _270
REMARK  109  A    between atoms: _270  and  _271
REMARK  110  A    between atoms: _275  and  _277
REMARK  111  A    between atoms: _277  and  _278
REMARK  112  A    between atoms: _277  and  _280
REMARK  113  A    between atoms: _280  and  _281
REMARK  114  A    between atoms: _284  and  _286
REMARK  115  A    between atoms: _286  and  _287
REMARK  116  A    between atoms: _286  and  _289
REMARK  117  A    between atoms: _289  and  _290
REMARK  118  A    between atoms: _293  and  _295
REMARK  119  A    between atoms: _295  and  _296
REMARK  120  A    between atoms: _295  and  _298
REMARK  121  A    between atoms: _298  and  _299
REMARK  122  A    between atoms: _299  and  _300
REMARK  123  A    between atoms: _300  and  _301
REMARK  124  A    between atoms: _301  and  _302
REMARK  125  A    between atoms: _306  and  _308
REMARK  126  A    between atoms: _308  and  _309
REMARK  127  A    between atoms: _308  and  _311
REMARK  128  A    between atoms: _311  and  _312
REMARK  129  A    between atoms: _315  and  _317
REMARK  130  A    between atoms: _317  and  _318
REMARK  131  A    between atoms: _317  and  _320
REMARK  132  A    between atoms: _320  and  _321
REMARK  133  A    between atoms: _321  and  _322
REMARK  134  A    between atoms: _327  and  _329
REMARK  135  A    between atoms: _329  and  _330
REMARK  136  A    between atoms: _329  and  _332
REMARK  137  A    between atoms: _332  and  _333
REMARK  138  A    between atoms: _336  and  _338
REMARK  139  A    between atoms: _338  and  _339
REMARK  140  A    between atoms: _338  and  _341
REMARK  141  A    between atoms: _341  and  _342
REMARK  142  A    between atoms: _347  and  _348
REMARK  143  A    between atoms: _350  and  _352
REMARK  144  A    between atoms: _352  and  _353
REMARK  145  A    between atoms: _352  and  _355
REMARK  146  A    between atoms: _355  and  _356
REMARK  147  A    between atoms: _359  and  _361
REMARK  148  A    between atoms: _361  and  _362
REMARK  149  A    between atoms: _361  and  _364
REMARK  150  A    between atoms: _366  and  _368
REMARK  151  A    between atoms: _368  and  _369
REMARK  152  A    between atoms: _372  and  _374
REMARK  153  A    between atoms: _374  and  _375
REMARK  154  A    between atoms: _374  and  _377
REMARK  155  A    between atoms: _377  and  _378
REMARK  156  A    between atoms: _378  and  _379
REMARK  157  A    between atoms: _379  and  _380
REMARK  158  A    between atoms: _380  and  _381
REMARK  159  A    between atoms: _385  and  _387
REMARK  160  A    between atoms: _387  and  _388
REMARK  161  A    between atoms: _387  and  _390
REMARK  162  A    between atoms: _390  and  _391
REMARK  163  A    between atoms: _394  and  _396
REMARK  164  A    between atoms: _396  and  _397
REMARK  165  A    between atoms: _400  and  _402
REMARK  166  A    between atoms: _402  and  _403
REMARK  167  A    between atoms: _402  and  _405
REMARK  168  A    between atoms: _405  and  _406
REMARK  169  A    between atoms: _406  and  _520
REMARK  170  A    between atoms: _407  and  _409
REMARK  171  A    between atoms: _409  and  _410
REMARK  172  A    between atoms: _409  and  _412
REMARK  173  A    between atoms: _412  and  _413
REMARK  174  A    between atoms: _413  and  _414
REMARK  175  A    between atoms: _414  and  _415
REMARK  176  A    between atoms: _415  and  _416
REMARK  177  A    between atoms: _420  and  _422
REMARK  178  A    between atoms: _422  and  _423
REMARK  179  A    between atoms: _425  and  _427
REMARK  180  A    between atoms: _427  and  _428
REMARK  181  A    between atoms: _427  and  _430
REMARK  182  A    between atoms: _430  and  _431
REMARK  183  A    between atoms: _434  and  _436
REMARK  184  A    between atoms: _436  and  _437
REMARK  185  A    between atoms: _436  and  _439
REMARK  186  A    between atoms: _439  and  _440
REMARK  187  A    between atoms: _442  and  _444
REMARK  188  A    between atoms: _444  and  _445
REMARK  189  A    between atoms: _447  and  _449
REMARK  190  A    between atoms: _449  and  _450
REMARK  191  A    between atoms: _452  and  _454
REMARK  192  A    between atoms: _454  and  _455
REMARK  193  A    between atoms: _454  and  _457
REMARK  194  A    between atoms: _457  and  _458
REMARK  195  A    between atoms: _461  and  _463
REMARK  196  A    between atoms: _463  and  _464
REMARK  197  A    between atoms: _463  and  _466
REMARK  198  A    between atoms: _466  and  _467
REMARK  199  A    between atoms: _470  and  _472
REMARK  200  A    between atoms: _472  and  _473
REMARK  201  A    between atoms: _472  and  _475
REMARK  202  A    between atoms: _475  and  _476
REMARK  203  A    between atoms: _478  and  _480
REMARK  204  A    between atoms: _480  and  _481
REMARK  205  A    between atoms: _480  and  _483
REMARK  206  A    between atoms: _483  and  _484
REMARK  207  A    between atoms: _494  and  _496
REMARK  208  A    between atoms: _496  and  _497
REMARK  209  A    between atoms: _499  and  _501
REMARK  210  A    between atoms: _501  and  _502
REMARK  211  A    between atoms: _501  and  _504
REMARK  212  A    between atoms: _504  and  _505
REMARK  213  A    between atoms: _505  and  _506
REMARK  214  A    between atoms: _509  and  _511
REMARK  215  A    between atoms: _511  and  _512
REMARK  216  A    between atoms: _514  and  _516
REMARK  217  A    between atoms: _516  and  _517
REMARK  218  A    between atoms: _516  and  _519
REMARK  219  A    between atoms: _519  and  _520
REMARK  220  A    between atoms: _521  and  _523
REMARK  221  A    between atoms: _523  and  _524
REMARK  222  A    between atoms: _527  and  _529
REMARK  223  A    between atoms: _529  and  _530
REMARK  224  A    between atoms: _529  and  _532
REMARK  225  A    between atoms: _532  and  _533
REMARK  226  A    between atoms: _533  and  _534
REMARK  227  A    between atoms: _539  and  _541
REMARK  228  A    between atoms: _541  and  _542
REMARK  229  A    between atoms: _541  and  _544
REMARK  230  A    between atoms: _544  and  _545
REMARK  231  A    between atoms: _545  and  _546
REMARK  232  A    between atoms: _546  and  _547
REMARK  233  A    between atoms: _557  and  _558
REMARK  234  A    between atoms: _563  and  _565
REMARK  235  A    between atoms: _565  and  _566
REMARK  236  A    between atoms: _568  and  _570
REMARK  237  A    between atoms: _570  and  _571
REMARK  238  A    between atoms: _570  and  _573
REMARK  239  A    between atoms: _576  and  _578
REMARK  240  A    between atoms: _578  and  _579
REMARK  241  A    between atoms: _578  and  _581
REMARK  242  A    between atoms: _581  and  _582
REMARK  243  A    between atoms: _587  and  _588
REMARK  244  A    between atoms: _590  and  _592
REMARK  245  A    between atoms: _592  and  _593
REMARK  246  A    between atoms: _592  and  _595
REMARK  247  A    between atoms: _595  and  _596
REMARK                            x       y       z     vdW  Elec       q    Type
REMARK                         _______ _______ _______ _____ _____    ______ ____
ROOT
ATOM      1  C   GLY A   3      30.879 -12.202  28.061  0.00  0.00    +0.243 C 
ATOM      2  O   GLY A   3      29.861 -11.590  28.390  0.00  0.00    -0.273 OA
ATOM      3  N   VAL A   4      30.866 -13.500  27.754  0.00  0.00    -0.297 N 
ATOM      4  H   VAL A   4      31.757 -13.950  27.463  0.00  0.00    +0.150 HD
ENDROOT
BRANCH   3   5
ATOM      5  CA  VAL A   4      29.654 -14.321  27.808  0.00  0.00    +0.149 C 
BRANCH   5   6
ATOM      6  C   VAL A   4      29.777 -15.291  28.961  0.00  0.00    +0.241 C 
ATOM      7  N   TYR A   5      28.759 -15.306  29.816  0.00  0.00    -0.297 N 
ATOM      8  H   TYR A   5      27.924 -14.725  29.601  0.00  0.00    +0.150 HD
ATOM      9  O   VAL A   4      30.800 -15.956  29.108  0.00  0.00    -0.273 OA
BRANCH   7  10
ATOM     10  CA  TYR A   5      28.757 -16.087  31.025  0.00  0.00    +0.153 C 
BRANCH  10  11
ATOM     11  C   TYR A   5      27.590 -17.036  31.062  0.00  0.00    +0.241 C 
ATOM     12  N   THR A   6      27.760 -18.186  31.719  0.00  0.00    -0.296 N 
ATOM     13  H   THR A   6      28.696 -18.441  32.094  0.00  0.00    +0.150 HD
ATOM     14  O   TYR A   5      26.536 -16.734  30.499  0.00  0.00    -0.273 OA
BRANCH  12  15
ATOM     15  CA  THR A   6      26.616 -19.088  31.909  0.00  0.00    +0.164 C 
BRANCH  15  16
ATOM     16  CB  THR A   6      27.076 -20.404  32.526  0.00  0.00    +0.136 C 
ATOM     17  CG2 THR A   6      25.879 -21.378  32.784  0.00  0.00    +0.034 C 
BRANCH  16  18
ATOM     18  OG1 THR A   6      27.968 -20.997  31.577  0.00  0.00    -0.382 OA
ATOM     19  HG1 THR A   6      28.298 -21.861  31.931  0.00  0.00    +0.210 HD
ENDBRANCH  16  18
ENDBRANCH  15  16
BRANCH  15  20
ATOM     20  C   THR A   6      25.652 -18.338  32.858  0.00  0.00    +0.229 C 
ATOM     21  O   THR A   6      26.102 -17.852  33.887  0.00  0.00    -0.286 OA
ENDBRANCH  15  20
ENDBRANCH  12  15
ENDBRANCH  10  11
BRANCH  10  22
ATOM     22  CB  TYR A   5      28.668 -15.137  32.245  0.00  0.00    +0.055 C 
BRANCH  22  23
ATOM     23  CG  TYR A   5      29.844 -14.184  32.368  0.00  0.00    -0.020 A 
ATOM     24  CD2 TYR A   5      30.857 -14.413  33.295  0.00  0.00    -0.001 A 
ATOM     25  CE2 TYR A   5      31.971 -13.567  33.378  0.00  0.00    +0.036 A 
ATOM     26  CZ  TYR A   5      32.054 -12.457  32.554  0.00  0.00    +0.134 A 
ATOM     27  CE1 TYR A   5      31.051 -12.202  31.630  0.00  0.00    +0.036 A 
ATOM     28  CD1 TYR A   5      29.941 -13.047  31.558  0.00  0.00    -0.001 A 
BRANCH  26  29
ATOM     29  OH  TYR A   5      33.144 -11.624  32.656  0.00  0.00    -0.506 OA
ATOM     30  HH  TYR A   5      33.054 -10.884  32.005  0.00  0.00    +0.292 HD
ENDBRANCH  26  29
ENDBRANCH  22  23
ENDBRANCH  10  22
ENDBRANCH   7  10
ENDBRANCH   5   6
BRANCH   5  31
ATOM     31  CB  VAL A   4      29.312 -15.018  26.467  0.00  0.00    +0.027 C 
ATOM     32  CG2 VAL A   4      27.926 -15.673  26.556  0.00  0.00    +0.002 C 
ATOM     33  CG1 VAL A   4      29.333 -13.997  25.313  0.00  0.00    +0.002 C 
ENDBRANCH   5  31
ENDBRANCH   3   5
BRANCH   1  34
ATOM     34  CA  GLY A   3      32.211 -11.489  27.965  0.00  0.00    +0.176 C 
BRANCH  34  36
ATOM     35  C   PRO A   2      31.557  -9.828  26.311  0.00  0.00    +0.241 C 
ATOM     36  N   GLY A   3      31.954 -10.116  27.544  0.00  0.00    -0.295 N 
ATOM     37  H   GLY A   3      32.085  -9.343  28.228  0.00  0.00    +0.150 HD
ATOM     38  O   PRO A   2      31.430 -10.665  25.418  0.00  0.00    -0.273 OA
BRANCH  35  42
ATOM     39  C   ARG A   1      32.507  -8.076  24.019  0.00  0.00    +0.241 C 
ATOM     40  O   ARG A   1      33.514  -8.314  24.671  0.00  0.00    -0.273 OA
ATOM     41  N   PRO A   2      31.316  -8.041  24.605  0.00  0.00    -0.272 N 
ATOM     42  CA  PRO A   2      31.232  -8.361  26.036  0.00  0.00    +0.152 C 
ATOM     43  CB  PRO A   2      29.784  -8.043  26.394  0.00  0.00    +0.031 C 
ATOM     44  CG  PRO A   2      29.036  -8.141  25.124  0.00  0.00    +0.024 C 
ATOM     45  CD  PRO A   2      29.980  -7.802  24.011  0.00  0.00    +0.094 C 
BRANCH  39  46
ATOM     46  CA  ARG A   1      32.607  -7.727  22.540  0.00  0.00    +0.145 C 
BRANCH  46  47
ATOM     47  N   ARG A   1      32.507  -6.255  22.440  0.00  0.00    -0.238 NA
ATOM     48  H   ARG A   1      33.081  -5.675  23.085  0.00  0.00    +0.142 HD
ENDBRANCH  46  47
BRANCH  46  49
ATOM     49  CB  ARG A   1      33.918  -8.263  21.943  0.00  0.00    +0.030 C 
BRANCH  49  50
ATOM     50  CG  ARG A   1      34.025  -8.151  20.421  0.00  0.00    +0.045 C 
BRANCH  50  51
ATOM     51  CD  ARG A   1      32.942  -8.913  19.653  0.00  0.00    +0.174 C 
BRANCH  51  52
ATOM     52  NE  ARG A   1      33.394  -9.111  18.274  0.00  0.00    -0.265 N 
ATOM     53  HE  ARG A   1      34.180  -8.519  17.936  0.00  0.00    +0.259 HD
ATOM     54  CZ  ARG A   1      32.878  -9.986  17.426  0.00  0.00    +0.342 C 
ATOM     55  NH2 ARG A   1      31.840 -10.736  17.782  0.00  0.00    -0.292 N 
ATOM     56 HH21 ARG A   1      31.428 -10.637  18.732  0.00  0.00    +0.255 HD
ATOM     57 HH22 ARG A   1      31.439 -11.422  17.111  0.00  0.00    +0.255 HD
ATOM     58  NH1 ARG A   1      33.408 -10.137  16.222  0.00  0.00    -0.292 N 
ATOM     59 HH11 ARG A   1      34.232  -9.567  15.941  0.00  0.00    +0.255 HD
ATOM     60 HH12 ARG A   1      33.001 -10.825  15.557  0.00  0.00    +0.255 HD
ENDBRANCH  51  52
ENDBRANCH  50  51
ENDBRANCH  49  50
ENDBRANCH  46  49
ENDBRANCH  39  46
ENDBRANCH  35  42
ENDBRANCH  34  36
ENDBRANCH   1  34
TORSDOF 21
REMARK  Name = ../refined-set-2016/4y8x/4y8x_pocket.pdb
REMARK  247 active torsions:
REMARK  status: ('A' for Active; 'I' for Inactive)
REMARK    1  A    between atoms: _1  and  _5
REMARK    2  A    between atoms: _5  and  _6
REMARK    3  A    between atoms: _5  and  _8
REMARK    4  A    between atoms: _8  and  _9
REMARK    5  A    between atoms: _12  and  _14
REMARK    6  A    between atoms: _14  and  _15
REMARK    7  A    between atoms: _14  and  _17
REMARK    8  A    between atoms: _20  and  _22
REMARK    9  A    between atoms: _22  and  _23
REMARK   10  A    between atoms: _22  and  _25
REMARK   11  A    between atoms: _25  and  _26
REMARK   12  A    between atoms: _29  and  _31
REMARK   13  A    between atoms: _31  and  _32
REMARK   14  A    between atoms: _31  and  _34
REMARK   15  A    between atoms: _34  and  _35
REMARK   16  A    between atoms: _38  and  _40
REMARK   17  A    between atoms: _40  and  _41
REMARK   18  A    between atoms: _40  and  _43
REMARK   19  A    between atoms: _43  and  _44
REMARK   20  A    between atoms: _49  and  _51
REMARK   21  A    between atoms: _51  and  _52
REMARK   22  A    between atoms: _51  and  _54
REMARK   23  A    between atoms: _54  and  _55
REMARK   24  A    between atoms: _58  and  _60
REMARK   25  A    between atoms: _60  and  _61
REMARK   26  A    between atoms: _60  and  _63
REMARK   27  A    between atoms: _63  and  _64
REMARK   28  A    between atoms: _67  and  _69
REMARK   29  A    between atoms: _69  and  _70
REMARK   30  A    between atoms: _69  and  _72
REMARK   31  A    between atoms: _72  and  _73
REMARK   32  A    between atoms: _73  and  _74
REMARK   33  A    between atoms: _79  and  _81
REMARK   34  A    between atoms: _81  and  _82
REMARK   35  A    between atoms: _81  and  _84
REMARK   36  A    between atoms: _84  and  _85
REMARK   37  A    between atoms: _85  and  _86
REMARK   38  A    between atoms: _86  and  _87
REMARK   39  A    between atoms: _96  and  _98
REMARK   40  A    between atoms: _98  and  _99
REMARK   41  A    between atoms: _98  and  _101
REMARK   42  A    between atoms: _101  and  _102
REMARK   43  A    between atoms: _107  and  _109
REMARK   44  A    between atoms: _109  and  _110
REMARK   45  A    between atoms: _109  and  _112
REMARK   46  A    between atoms: _112  and  _113
REMARK   47  A    between atoms: _116  and  _118
REMARK   48  A    between atoms: _118  and  _119
REMARK   49  A    between atoms: _118  and  _121
REMARK   50  A    between atoms: _121  and  _122
REMARK   51  A    between atoms: _122  and  _157
REMARK   52  A    between atoms: _123  and  _125
REMARK   53  A    between atoms: _125  and  _126
REMARK   54  A    between atoms: _128  and  _130
REMARK   55  A    between atoms: _130  and  _131
REMARK   56  A    between atoms: _134  and  _136
REMARK   57  A    between atoms: _136  and  _137
REMARK   58  A    between atoms: _140  and  _142
REMARK   59  A    between atoms: _142  and  _143
REMARK   60  A    between atoms: _142  and  _145
REMARK   61  A    between atoms: _145  and  _146
REMARK   62  A    between atoms: _151  and  _153
REMARK   63  A    between atoms: _153  and  _154
REMARK   64  A    between atoms: _153  and  _156
REMARK   65  A    between atoms: _156  and  _157
REMARK   66  A    between atoms: _158  and  _160
REMARK   67  A    between atoms: _160  and  _161
REMARK   68  A    between atoms: _160  and  _163
REMARK   69  A    between atoms: _163  and  _164
REMARK   70  A    between atoms: _170  and  _172
REMARK   71  A    between atoms: _172  and  _173
REMARK   72  A    between atoms: _172  and  _175
REMARK   73  A    between atoms: _175  and  _176
REMARK   74  A    between atoms: _181  and  _182
REMARK   75  A    between atoms: _184  and  _186
REMARK   76  A    between atoms: _186  and  _187
REMARK   77  A    between atoms: _186  and  _189
REMARK   78  A    between atoms: _192  and  _194
REMARK   79  A    between atoms: _194  and  _195
REMARK   80  A    between atoms: _194  and  _197
REMARK   81  A    between atoms: _197  and  _198
REMARK   82  A    between atoms: _198  and  _199
REMARK   83  A    between atoms: _204  and  _206
REMARK   84  A    between atoms: _206  and  _207
REMARK   85  A    between atoms: _210  and  _212
REMARK   86  A    between atoms: _212  and  _213
REMARK   87  A    between atoms: _212  and  _215
REMARK   88  A    between atoms: _215  and  _216
REMARK   89  A    between atoms: _219  and  _221
REMARK   90  A    between atoms: _221  and  _222
REMARK   91  A    between atoms: _221  and  _224
REMARK   92  A    between atoms: _227  and  _229
REMARK   93  A    between atoms: _229  and  _230
REMARK   94  A    between atoms: _229  and  _232
REMARK   95  A    between atoms: _232  and  _233
REMARK   96  A    between atoms: _243  and  _245
REMARK   97  A    between atoms: _245  and  _246
REMARK   98  A    between atoms: _248  and  _250
REMARK   99  A    between atoms: _250  and  _251
REMARK  100  A    between atoms: _250  and  _253
REMARK  101  A    between atoms: _253  and  _254
REMARK  102  A    between atoms: _259  and  _260
REMARK  103  A    between atoms: _262  and  _264
REMARK  104  A    between atoms: _264  and  _265
REMARK  105  A    between atoms: _264  and  _267
REMARK  106  A    between atoms: _267  and  _268
REMARK  107  A    between atoms: _268  and  _269
REMARK  108  A    between atoms: _269  and  _270
REMARK  109  A    between atoms: _270  and  _271
REMARK  110  A    between atoms: _275  and  _277
REMARK  111  A    between atoms: _277  and  _278
REMARK  112  A    between atoms: _277  and  _280
REMARK  113  A    between atoms: _280  and  _281
REMARK  114  A    between atoms: _284  and  _286
REMARK  115  A    between atoms: _286  and  _287
REMARK  116  A    between atoms: _286  and  _289
REMARK  117  A    between atoms: _289  and  _290
REMARK  118  A    between atoms: _293  and  _295
REMARK  119  A    between atoms: _295  and  _296
REMARK  120  A    between atoms: _295  and  _298
REMARK  121  A    between atoms: _298  and  _299
REMARK  122  A    between atoms: _299  and  _300
REMARK  123  A    between atoms: _300  and  _301
REMARK  124  A    between atoms: _301  and  _302
REMARK  125  A    between atoms: _306  and  _308
REMARK  126  A    between atoms: _308  and  _309
REMARK  127  A    between atoms: _308  and  _311
REMARK  128  A    between atoms: _311  and  _312
REMARK  129  A    between atoms: _315  and  _317
REMARK  130  A    between atoms: _317  and  _318
REMARK  131  A    between atoms: _317  and  _320
REMARK  132  A    between atoms: _320  and  _321
REMARK  133  A    between atoms: _321  and  _322
REMARK  134  A    between atoms: _327  and  _329
REMARK  135  A    between atoms: _329  and  _330
REMARK  136  A    between atoms: _329  and  _332
REMARK  137  A    between atoms: _332  and  _333
REMARK  138  A    between atoms: _336  and  _338
REMARK  139  A    between atoms: _338  and  _339
REMARK  140  A    between atoms: _338  and  _341
REMARK  141  A    between atoms: _341  and  _342
REMARK  142  A    between atoms: _347  and  _348
REMARK  143  A    between atoms: _350  and  _352
REMARK  144  A    between atoms: _352  and  _353
REMARK  145  A    between atoms: _352  and  _355
REMARK  146  A    between atoms: _355  and  _356
REMARK  147  A    between atoms: _359  and  _361
REMARK  148  A    between atoms: _361  and  _362
REMARK  149  A    between atoms: _361  and  _364
REMARK  150  A    between atoms: _366  and  _368
REMARK  151  A    between atoms: _368  and  _369
REMARK  152  A    between atoms: _372  and  _374
REMARK  153  A    between atoms: _374  and  _375
REMARK  154  A    between atoms: _374  and  _377
REMARK  155  A    between atoms: _377  and  _378
REMARK  156  A    between atoms: _378  and  _379
REMARK  157  A    between atoms: _379  and  _380
REMARK  158  A    between atoms: _380  and  _381
REMARK  159  A    between atoms: _385  and  _387
REMARK  160  A    between atoms: _387  and  _388
REMARK  161  A    between atoms: _387  and  _390
REMARK  162  A    between atoms: _390  and  _391
REMARK  163  A    between atoms: _394  and  _396
REMARK  164  A    between atoms: _396  and  _397
REMARK  165  A    between atoms: _400  and  _402
REMARK  166  A    between atoms: _402  and  _403
REMARK  167  A    between atoms: _402  and  _405
REMARK  168  A    between atoms: _405  and  _406
REMARK  169  A    between atoms: _406  and  _520
REMARK  170  A    between atoms: _407  and  _409
REMARK  171  A    between atoms: _409  and  _410
REMARK  172  A    between atoms: _409  and  _412
REMARK  173  A    between atoms: _412  and  _413
REMARK  174  A    between atoms: _413  and  _414
REMARK  175  A    between atoms: _414  and  _415
REMARK  176  A    between atoms: _415  and  _416
REMARK  177  A    between atoms: _420  and  _422
REMARK  178  A    between atoms: _422  and  _423
REMARK  179  A    between atoms: _425  and  _427
REMARK  180  A    between atoms: _427  and  _428
REMARK  181  A    between atoms: _427  and  _430
REMARK  182  A    between atoms: _430  and  _431
REMARK  183  A    between atoms: _434  and  _436
REMARK  184  A    between atoms: _436  and  _437
REMARK  185  A    between atoms: _436  and  _439
REMARK  186  A    between atoms: _439  and  _440
REMARK  187  A    between atoms: _442  and  _444
REMARK  188  A    between atoms: _444  and  _445
REMARK  189  A    between atoms: _447  and  _449
REMARK  190  A    between atoms: _449  and  _450
REMARK  191  A    between atoms: _452  and  _454
REMARK  192  A    between atoms: _454  and  _455
REMARK  193  A    between atoms: _454  and  _457
REMARK  194  A    between atoms: _457  and  _458
REMARK  195  A    between atoms: _461  and  _463
REMARK  196  A    between atoms: _463  and  _464
REMARK  197  A    between atoms: _463  and  _466
REMARK  198  A    between atoms: _466  and  _467
REMARK  199  A    between atoms: _470  and  _472
REMARK  200  A    between atoms: _472  and  _473
REMARK  201  A    between atoms: _472  and  _475
REMARK  202  A    between atoms: _475  and  _476
REMARK  203  A    between atoms: _478  and  _480
REMARK  204  A    between atoms: _480  and  _481
REMARK  205  A    between atoms: _480  and  _483
REMARK  206  A    between atoms: _483  and  _484
REMARK  207  A    between atoms: _494  and  _496
REMARK  208  A    between atoms: _496  and  _497
REMARK  209  A    between atoms: _499  and  _501
REMARK  210  A    between atoms: _501  and  _502
REMARK  211  A    between atoms: _501  and  _504
REMARK  212  A    between atoms: _504  and  _505
REMARK  213  A    between atoms: _505  and  _506
REMARK  214  A    between atoms: _509  and  _511
REMARK  215  A    between atoms: _511  and  _512
REMARK  216  A    between atoms: _514  and  _516
REMARK  217  A    between atoms: _516  and  _517
REMARK  218  A    between atoms: _516  and  _519
REMARK  219  A    between atoms: _519  and  _520
REMARK  220  A    between atoms: _521  and  _523
REMARK  221  A    between atoms: _523  and  _524
REMARK  222  A    between atoms: _527  and  _529
REMARK  223  A    between atoms: _529  and  _530
REMARK  224  A    between atoms: _529  and  _532
REMARK  225  A    between atoms: _532  and  _533
REMARK  226  A    between atoms: _533  and  _534
REMARK  227  A    between atoms: _539  and  _541
REMARK  228  A    between atoms: _541  and  _542
REMARK  229  A    between atoms: _541  and  _544
REMARK  230  A    between atoms: _544  and  _545
REMARK  231  A    between atoms: _545  and  _546
REMARK  232  A    between atoms: _546  and  _547
REMARK  233  A    between atoms: _557  and  _558
REMARK  234  A    between atoms: _563  and  _565
REMARK  235  A    between atoms: _565  and  _566
REMARK  236  A    between atoms: _568  and  _570
REMARK  237  A    between atoms: _570  and  _571
REMARK  238  A    between atoms: _570  and  _573
REMARK  239  A    between atoms: _576  and  _578
REMARK  240  A    between atoms: _578  and  _579
REMARK  241  A    between atoms: _578  and  _581
REMARK  242  A    between atoms: _581  and  _582
REMARK  243  A    between atoms: _587  and  _588
REMARK  244  A    between atoms: _590  and  _592
REMARK  245  A    between atoms: _592  and  _593
REMARK  246  A    between atoms: _592  and  _595
REMARK  247  A    between atoms: _595  and  _596
REMARK                            x       y       z     vdW  Elec       q    Type
REMARK                         _______ _______ _______ _____ _____    ______ ____
ROOT
ATOM      1  O   HOH     1      38.049 -26.251  26.427  0.00  0.00    +0.000 OA
ENDROOT
TORSDOF 0
REMARK  Name = ../refined-set-2016/4y8x/4y8x_pocket.pdb
REMARK  247 active torsions:
REMARK  status: ('A' for Active; 'I' for Inactive)
REMARK    1  A    between atoms: _1  and  _5
REMARK    2  A    between atoms: _5  and  _6
REMARK    3  A    between atoms: _5  and  _8
REMARK    4  A    between atoms: _8  and  _9
REMARK    5  A    between atoms: _12  and  _14
REMARK    6  A    between atoms: _14  and  _15
REMARK    7  A    between atoms: _14  and  _17
REMARK    8  A    between atoms: _20  and  _22
REMARK    9  A    between atoms: _22  and  _23
REMARK   10  A    between atoms: _22  and  _25
REMARK   11  A    between atoms: _25  and  _26
REMARK   12  A    between atoms: _29  and  _31
REMARK   13  A    between atoms: _31  and  _32
REMARK   14  A    between atoms: _31  and  _34
REMARK   15  A    between atoms: _34  and  _35
REMARK   16  A    between atoms: _38  and  _40
REMARK   17  A    between atoms: _40  and  _41
REMARK   18  A    between atoms: _40  and  _43
REMARK   19  A    between atoms: _43  and  _44
REMARK   20  A    between atoms: _49  and  _51
REMARK   21  A    between atoms: _51  and  _52
REMARK   22  A    between atoms: _51  and  _54
REMARK   23  A    between atoms: _54  and  _55
REMARK   24  A    between atoms: _58  and  _60
REMARK   25  A    between atoms: _60  and  _61
REMARK   26  A    between atoms: _60  and  _63
REMARK   27  A    between atoms: _63  and  _64
REMARK   28  A    between atoms: _67  and  _69
REMARK   29  A    between atoms: _69  and  _70
REMARK   30  A    between atoms: _69  and  _72
REMARK   31  A    between atoms: _72  and  _73
REMARK   32  A    between atoms: _73  and  _74
REMARK   33  A    between atoms: _79  and  _81
REMARK   34  A    between atoms: _81  and  _82
REMARK   35  A    between atoms: _81  and  _84
REMARK   36  A    between atoms: _84  and  _85
REMARK   37  A    between atoms: _85  and  _86
REMARK   38  A    between atoms: _86  and  _87
REMARK   39  A    between atoms: _96  and  _98
REMARK   40  A    between atoms: _98  and  _99
REMARK   41  A    between atoms: _98  and  _101
REMARK   42  A    between atoms: _101  and  _102
REMARK   43  A    between atoms: _107  and  _109
REMARK   44  A    between atoms: _109  and  _110
REMARK   45  A    between atoms: _109  and  _112
REMARK   46  A    between atoms: _112  and  _113
REMARK   47  A    between atoms: _116  and  _118
REMARK   48  A    between atoms: _118  and  _119
REMARK   49  A    between atoms: _118  and  _121
REMARK   50  A    between atoms: _121  and  _122
REMARK   51  A    between atoms: _122  and  _157
REMARK   52  A    between atoms: _123  and  _125
REMARK   53  A    between atoms: _125  and  _126
REMARK   54  A    between atoms: _128  and  _130
REMARK   55  A    between atoms: _130  and  _131
REMARK   56  A    between atoms: _134  and  _136
REMARK   57  A    between atoms: _136  and  _137
REMARK   58  A    between atoms: _140  and  _142
REMARK   59  A    between atoms: _142  and  _143
REMARK   60  A    between atoms: _142  and  _145
REMARK   61  A    between atoms: _145  and  _146
REMARK   62  A    between atoms: _151  and  _153
REMARK   63  A    between atoms: _153  and  _154
REMARK   64  A    between atoms: _153  and  _156
REMARK   65  A    between atoms: _156  and  _157
REMARK   66  A    between atoms: _158  and  _160
REMARK   67  A    between atoms: _160  and  _161
REMARK   68  A    between atoms: _160  and  _163
REMARK   69  A    between atoms: _163  and  _164
REMARK   70  A    between atoms: _170  and  _172
REMARK   71  A    between atoms: _172  and  _173
REMARK   72  A    between atoms: _172  and  _175
REMARK   73  A    between atoms: _175  and  _176
REMARK   74  A    between atoms: _181  and  _182
REMARK   75  A    between atoms: _184  and  _186
REMARK   76  A    between atoms: _186  and  _187
REMARK   77  A    between atoms: _186  and  _189
REMARK   78  A    between atoms: _192  and  _194
REMARK   79  A    between atoms: _194  and  _195
REMARK   80  A    between atoms: _194  and  _197
REMARK   81  A    between atoms: _197  and  _198
REMARK   82  A    between atoms: _198  and  _199
REMARK   83  A    between atoms: _204  and  _206
REMARK   84  A    between atoms: _206  and  _207
REMARK   85  A    between atoms: _210  and  _212
REMARK   86  A    between atoms: _212  and  _213
REMARK   87  A    between atoms: _212  and  _215
REMARK   88  A    between atoms: _215  and  _216
REMARK   89  A    between atoms: _219  and  _221
REMARK   90  A    between atoms: _221  and  _222
REMARK   91  A    between atoms: _221  and  _224
REMARK   92  A    between atoms: _227  and  _229
REMARK   93  A    between atoms: _229  and  _230
REMARK   94  A    between atoms: _229  and  _232
REMARK   95  A    between atoms: _232  and  _233
REMARK   96  A    between atoms: _243  and  _245
REMARK   97  A    between atoms: _245  and  _246
REMARK   98  A    between atoms: _248  and  _250
REMARK   99  A    between atoms: _250  and  _251
REMARK  100  A    between atoms: _250  and  _253
REMARK  101  A    between atoms: _253  and  _254
REMARK  102  A    between atoms: _259  and  _260
REMARK  103  A    between atoms: _262  and  _264
REMARK  104  A    between atoms: _264  and  _265
REMARK  105  A    between atoms: _264  and  _267
REMARK  106  A    between atoms: _267  and  _268
REMARK  107  A    between atoms: _268  and  _269
REMARK  108  A    between atoms: _269  and  _270
REMARK  109  A    between atoms: _270  and  _271
REMARK  110  A    between atoms: _275  and  _277
REMARK  111  A    between atoms: _277  and  _278
REMARK  112  A    between atoms: _277  and  _280
REMARK  113  A    between atoms: _280  and  _281
REMARK  114  A    between atoms: _284  and  _286
REMARK  115  A    between atoms: _286  and  _287
REMARK  116  A    between atoms: _286  and  _289
REMARK  117  A    between atoms: _289  and  _290
REMARK  118  A    between atoms: _293  and  _295
REMARK  119  A    between atoms: _295  and  _296
REMARK  120  A    between atoms: _295  and  _298
REMARK  121  A    between atoms: _298  and  _299
REMARK  122  A    between atoms: _299  and  _300
REMARK  123  A    between atoms: _300  and  _301
REMARK  124  A    between atoms: _301  and  _302
REMARK  125  A    between atoms: _306  and  _308
REMARK  126  A    between atoms: _308  and  _309
REMARK  127  A    between atoms: _308  and  _311
REMARK  128  A    between atoms: _311  and  _312
REMARK  129  A    between atoms: _315  and  _317
REMARK  130  A    between atoms: _317  and  _318
REMARK  131  A    between atoms: _317  and  _320
REMARK  132  A    between atoms: _320  and  _321
REMARK  133  A    between atoms: _321  and  _322
REMARK  134  A    between atoms: _327  and  _329
REMARK  135  A    between atoms: _329  and  _330
REMARK  136  A    between atoms: _329  and  _332
REMARK  137  A    between atoms: _332  and  _333
REMARK  138  A    between atoms: _336  and  _338
REMARK  139  A    between atoms: _338  and  _339
REMARK  140  A    between atoms: _338  and  _341
REMARK  141  A    between atoms: _341  and  _342
REMARK  142  A    between atoms: _347  and  _348
REMARK  143  A    between atoms: _350  and  _352
REMARK  144  A    between atoms: _352  and  _353
REMARK  145  A    between atoms: _352  and  _355
REMARK  146  A    between atoms: _355  and  _356
REMARK  147  A    between atoms: _359  and  _361
REMARK  148  A    between atoms: _361  and  _362
REMARK  149  A    between atoms: _361  and  _364
REMARK  150  A    between atoms: _366  and  _368
REMARK  151  A    between atoms: _368  and  _369
REMARK  152  A    between atoms: _372  and  _374
REMARK  153  A    between atoms: _374  and  _375
REMARK  154  A    between atoms: _374  and  _377
REMARK  155  A    between atoms: _377  and  _378
REMARK  156  A    between atoms: _378  and  _379
REMARK  157  A    between atoms: _379  and  _380
REMARK  158  A    between atoms: _380  and  _381
REMARK  159  A    between atoms: _385  and  _387
REMARK  160  A    between atoms: _387  and  _388
REMARK  161  A    between atoms: _387  and  _390
REMARK  162  A    between atoms: _390  and  _391
REMARK  163  A    between atoms: _394  and  _396
REMARK  164  A    between atoms: _396  and  _397
REMARK  165  A    between atoms: _400  and  _402
REMARK  166  A    between atoms: _402  and  _403
REMARK  167  A    between atoms: _402  and  _405
REMARK  168  A    between atoms: _405  and  _406
REMARK  169  A    between atoms: _406  and  _520
REMARK  170  A    between atoms: _407  and  _409
REMARK  171  A    between atoms: _409  and  _410
REMARK  172  A    between atoms: _409  and  _412
REMARK  173  A    between atoms: _412  and  _413
REMARK  174  A    between atoms: _413  and  _414
REMARK  175  A    between atoms: _414  and  _415
REMARK  176  A    between atoms: _415  and  _416
REMARK  177  A    between atoms: _420  and  _422
REMARK  178  A    between atoms: _422  and  _423
REMARK  179  A    between atoms: _425  and  _427
REMARK  180  A    between atoms: _427  and  _428
REMARK  181  A    between atoms: _427  and  _430
REMARK  182  A    between atoms: _430  and  _431
REMARK  183  A    between atoms: _434  and  _436
REMARK  184  A    between atoms: _436  and  _437
REMARK  185  A    between atoms: _436  and  _439
REMARK  186  A    between atoms: _439  and  _440
REMARK  187  A    between atoms: _442  and  _444
REMARK  188  A    between atoms: _444  and  _445
REMARK  189  A    between atoms: _447  and  _449
REMARK  190  A    between atoms: _449  and  _450
REMARK  191  A    between atoms: _452  and  _454
REMARK  192  A    between atoms: _454  and  _455
REMARK  193  A    between atoms: _454  and  _457
REMARK  194  A    between atoms: _457  and  _458
REMARK  195  A    between atoms: _461  and  _463
REMARK  196  A    between atoms: _463  and  _464
REMARK  197  A    between atoms: _463  and  _466
REMARK  198  A    between atoms: _466  and  _467
REMARK  199  A    between atoms: _470  and  _472
REMARK  200  A    between atoms: _472  and  _473
REMARK  201  A    between atoms: _472  and  _475
REMARK  202  A    between atoms: _475  and  _476
REMARK  203  A    between atoms: _478  and  _480
REMARK  204  A    between atoms: _480  and  _481
REMARK  205  A    between atoms: _480  and  _483
REMARK  206  A    between atoms: _483  and  _484
REMARK  207  A    between atoms: _494  and  _496
REMARK  208  A    between atoms: _496  and  _497
REMARK  209  A    between atoms: _499  and  _501
REMARK  210  A    between atoms: _501  and  _502
REMARK  211  A    between atoms: _501  and  _504
REMARK  212  A    between atoms: _504  and  _505
REMARK  213  A    between atoms: _505  and  _506
REMARK  214  A    between atoms: _509  and  _511
REMARK  215  A    between atoms: _511  and  _512
REMARK  216  A    between atoms: _514  and  _516
REMARK  217  A    between atoms: _516  and  _517
REMARK  218  A    between atoms: _516  and  _519
REMARK  219  A    between atoms: _519  and  _520
REMARK  220  A    between atoms: _521  and  _523
REMARK  221  A    between atoms: _523  and  _524
REMARK  222  A    between atoms: _527  and  _529
REMARK  223  A    between atoms: _529  and  _530
REMARK  224  A    between atoms: _529  and  _532
REMARK  225  A    between atoms: _532  and  _533
REMARK  226  A    between atoms: _533  and  _534
REMARK  227  A    between atoms: _539  and  _541
REMARK  228  A    between atoms: _541  and  _542
REMARK  229  A    between atoms: _541  and  _544
REMARK  230  A    between atoms: _544  and  _545
REMARK  231  A    between atoms: _545  and  _546
REMARK  232  A    between atoms: _546  and  _547
REMARK  233  A    between atoms: _557  and  _558
REMARK  234  A    between atoms: _563  and  _565
REMARK  235  A    between atoms: _565  and  _566
REMARK  236  A    between atoms: _568  and  _570
REMARK  237  A    between atoms: _570  and  _571
REMARK  238  A    between atoms: _570  and  _573
REMARK  239  A    between atoms: _576  and  _578
REMARK  240  A    between atoms: _578  and  _579
REMARK  241  A    between atoms: _578  and  _581
REMARK  242  A    between atoms: _581  and  _582
REMARK  243  A    between atoms: _587  and  _588
REMARK  244  A    between atoms: _590  and  _592
REMARK  245  A    between atoms: _592  and  _593
REMARK  246  A    between atoms: _592  and  _595
REMARK  247  A    between atoms: _595  and  _596
REMARK                            x       y       z     vdW  Elec       q    Type
REMARK                         _______ _______ _______ _____ _____    ______ ____
ROOT
ATOM      1  O   HOH     1      43.495 -20.631  23.194  0.00  0.00    +0.000 OA
ENDROOT
TORSDOF 0
REMARK  Name = ../refined-set-2016/4y8x/4y8x_pocket.pdb
REMARK  247 active torsions:
REMARK  status: ('A' for Active; 'I' for Inactive)
REMARK    1  A    between atoms: _1  and  _5
REMARK    2  A    between atoms: _5  and  _6
REMARK    3  A    between atoms: _5  and  _8
REMARK    4  A    between atoms: _8  and  _9
REMARK    5  A    between atoms: _12  and  _14
REMARK    6  A    between atoms: _14  and  _15
REMARK    7  A    between atoms: _14  and  _17
REMARK    8  A    between atoms: _20  and  _22
REMARK    9  A    between atoms: _22  and  _23
REMARK   10  A    between atoms: _22  and  _25
REMARK   11  A    between atoms: _25  and  _26
REMARK   12  A    between atoms: _29  and  _31
REMARK   13  A    between atoms: _31  and  _32
REMARK   14  A    between atoms: _31  and  _34
REMARK   15  A    between atoms: _34  and  _35
REMARK   16  A    between atoms: _38  and  _40
REMARK   17  A    between atoms: _40  and  _41
REMARK   18  A    between atoms: _40  and  _43
REMARK   19  A    between atoms: _43  and  _44
REMARK   20  A    between atoms: _49  and  _51
REMARK   21  A    between atoms: _51  and  _52
REMARK   22  A    between atoms: _51  and  _54
REMARK   23  A    between atoms: _54  and  _55
REMARK   24  A    between atoms: _58  and  _60
REMARK   25  A    between atoms: _60  and  _61
REMARK   26  A    between atoms: _60  and  _63
REMARK   27  A    between atoms: _63  and  _64
REMARK   28  A    between atoms: _67  and  _69
REMARK   29  A    between atoms: _69  and  _70
REMARK   30  A    between atoms: _69  and  _72
REMARK   31  A    between atoms: _72  and  _73
REMARK   32  A    between atoms: _73  and  _74
REMARK   33  A    between atoms: _79  and  _81
REMARK   34  A    between atoms: _81  and  _82
REMARK   35  A    between atoms: _81  and  _84
REMARK   36  A    between atoms: _84  and  _85
REMARK   37  A    between atoms: _85  and  _86
REMARK   38  A    between atoms: _86  and  _87
REMARK   39  A    between atoms: _96  and  _98
REMARK   40  A    between atoms: _98  and  _99
REMARK   41  A    between atoms: _98  and  _101
REMARK   42  A    between atoms: _101  and  _102
REMARK   43  A    between atoms: _107  and  _109
REMARK   44  A    between atoms: _109  and  _110
REMARK   45  A    between atoms: _109  and  _112
REMARK   46  A    between atoms: _112  and  _113
REMARK   47  A    between atoms: _116  and  _118
REMARK   48  A    between atoms: _118  and  _119
REMARK   49  A    between atoms: _118  and  _121
REMARK   50  A    between atoms: _121  and  _122
REMARK   51  A    between atoms: _122  and  _157
REMARK   52  A    between atoms: _123  and  _125
REMARK   53  A    between atoms: _125  and  _126
REMARK   54  A    between atoms: _128  and  _130
REMARK   55  A    between atoms: _130  and  _131
REMARK   56  A    between atoms: _134  and  _136
REMARK   57  A    between atoms: _136  and  _137
REMARK   58  A    between atoms: _140  and  _142
REMARK   59  A    between atoms: _142  and  _143
REMARK   60  A    between atoms: _142  and  _145
REMARK   61  A    between atoms: _145  and  _146
REMARK   62  A    between atoms: _151  and  _153
REMARK   63  A    between atoms: _153  and  _154
REMARK   64  A    between atoms: _153  and  _156
REMARK   65  A    between atoms: _156  and  _157
REMARK   66  A    between atoms: _158  and  _160
REMARK   67  A    between atoms: _160  and  _161
REMARK   68  A    between atoms: _160  and  _163
REMARK   69  A    between atoms: _163  and  _164
REMARK   70  A    between atoms: _170  and  _172
REMARK   71  A    between atoms: _172  and  _173
REMARK   72  A    between atoms: _172  and  _175
REMARK   73  A    between atoms: _175  and  _176
REMARK   74  A    between atoms: _181  and  _182
REMARK   75  A    between atoms: _184  and  _186
REMARK   76  A    between atoms: _186  and  _187
REMARK   77  A    between atoms: _186  and  _189
REMARK   78  A    between atoms: _192  and  _194
REMARK   79  A    between atoms: _194  and  _195
REMARK   80  A    between atoms: _194  and  _197
REMARK   81  A    between atoms: _197  and  _198
REMARK   82  A    between atoms: _198  and  _199
REMARK   83  A    between atoms: _204  and  _206
REMARK   84  A    between atoms: _206  and  _207
REMARK   85  A    between atoms: _210  and  _212
REMARK   86  A    between atoms: _212  and  _213
REMARK   87  A    between atoms: _212  and  _215
REMARK   88  A    between atoms: _215  and  _216
REMARK   89  A    between atoms: _219  and  _221
REMARK   90  A    between atoms: _221  and  _222
REMARK   91  A    between atoms: _221  and  _224
REMARK   92  A    between atoms: _227  and  _229
REMARK   93  A    between atoms: _229  and  _230
REMARK   94  A    between atoms: _229  and  _232
REMARK   95  A    between atoms: _232  and  _233
REMARK   96  A    between atoms: _243  and  _245
REMARK   97  A    between atoms: _245  and  _246
REMARK   98  A    between atoms: _248  and  _250
REMARK   99  A    between atoms: _250  and  _251
REMARK  100  A    between atoms: _250  and  _253
REMARK  101  A    between atoms: _253  and  _254
REMARK  102  A    between atoms: _259  and  _260
REMARK  103  A    between atoms: _262  and  _264
REMARK  104  A    between atoms: _264  and  _265
REMARK  105  A    between atoms: _264  and  _267
REMARK  106  A    between atoms: _267  and  _268
REMARK  107  A    between atoms: _268  and  _269
REMARK  108  A    between atoms: _269  and  _270
REMARK  109  A    between atoms: _270  and  _271
REMARK  110  A    between atoms: _275  and  _277
REMARK  111  A    between atoms: _277  and  _278
REMARK  112  A    between atoms: _277  and  _280
REMARK  113  A    between atoms: _280  and  _281
REMARK  114  A    between atoms: _284  and  _286
REMARK  115  A    between atoms: _286  and  _287
REMARK  116  A    between atoms: _286  and  _289
REMARK  117  A    between atoms: _289  and  _290
REMARK  118  A    between atoms: _293  and  _295
REMARK  119  A    between atoms: _295  and  _296
REMARK  120  A    between atoms: _295  and  _298
REMARK  121  A    between atoms: _298  and  _299
REMARK  122  A    between atoms: _299  and  _300
REMARK  123  A    between atoms: _300  and  _301
REMARK  124  A    between atoms: _301  and  _302
REMARK  125  A    between atoms: _306  and  _308
REMARK  126  A    between atoms: _308  and  _309
REMARK  127  A    between atoms: _308  and  _311
REMARK  128  A    between atoms: _311  and  _312
REMARK  129  A    between atoms: _315  and  _317
REMARK  130  A    between atoms: _317  and  _318
REMARK  131  A    between atoms: _317  and  _320
REMARK  132  A    between atoms: _320  and  _321
REMARK  133  A    between atoms: _321  and  _322
REMARK  134  A    between atoms: _327  and  _329
REMARK  135  A    between atoms: _329  and  _330
REMARK  136  A    between atoms: _329  and  _332
REMARK  137  A    between atoms: _332  and  _333
REMARK  138  A    between atoms: _336  and  _338
REMARK  139  A    between atoms: _338  and  _339
REMARK  140  A    between atoms: _338  and  _341
REMARK  141  A    between atoms: _341  and  _342
REMARK  142  A    between atoms: _347  and  _348
REMARK  143  A    between atoms: _350  and  _352
REMARK  144  A    between atoms: _352  and  _353
REMARK  145  A    between atoms: _352  and  _355
REMARK  146  A    between atoms: _355  and  _356
REMARK  147  A    between atoms: _359  and  _361
REMARK  148  A    between atoms: _361  and  _362
REMARK  149  A    between atoms: _361  and  _364
REMARK  150  A    between atoms: _366  and  _368
REMARK  151  A    between atoms: _368  and  _369
REMARK  152  A    between atoms: _372  and  _374
REMARK  153  A    between atoms: _374  and  _375
REMARK  154  A    between atoms: _374  and  _377
REMARK  155  A    between atoms: _377  and  _378
REMARK  156  A    between atoms: _378  and  _379
REMARK  157  A    between atoms: _379  and  _380
REMARK  158  A    between atoms: _380  and  _381
REMARK  159  A    between atoms: _385  and  _387
REMARK  160  A    between atoms: _387  and  _388
REMARK  161  A    between atoms: _387  and  _390
REMARK  162  A    between atoms: _390  and  _391
REMARK  163  A    between atoms: _394  and  _396
REMARK  164  A    between atoms: _396  and  _397
REMARK  165  A    between atoms: _400  and  _402
REMARK  166  A    between atoms: _402  and  _403
REMARK  167  A    between atoms: _402  and  _405
REMARK  168  A    between atoms: _405  and  _406
REMARK  169  A    between atoms: _406  and  _520
REMARK  170  A    between atoms: _407  and  _409
REMARK  171  A    between atoms: _409  and  _410
REMARK  172  A    between atoms: _409  and  _412
REMARK  173  A    between atoms: _412  and  _413
REMARK  174  A    between atoms: _413  and  _414
REMARK  175  A    between atoms: _414  and  _415
REMARK  176  A    between atoms: _415  and  _416
REMARK  177  A    between atoms: _420  and  _422
REMARK  178  A    between atoms: _422  and  _423
REMARK  179  A    between atoms: _425  and  _427
REMARK  180  A    between atoms: _427  and  _428
REMARK  181  A    between atoms: _427  and  _430
REMARK  182  A    between atoms: _430  and  _431
REMARK  183  A    between atoms: _434  and  _436
REMARK  184  A    between atoms: _436  and  _437
REMARK  185  A    between atoms: _436  and  _439
REMARK  186  A    between atoms: _439  and  _440
REMARK  187  A    between atoms: _442  and  _444
REMARK  188  A    between atoms: _444  and  _445
REMARK  189  A    between atoms: _447  and  _449
REMARK  190  A    between atoms: _449  and  _450
REMARK  191  A    between atoms: _452  and  _454
REMARK  192  A    between atoms: _454  and  _455
REMARK  193  A    between atoms: _454  and  _457
REMARK  194  A    between atoms: _457  and  _458
REMARK  195  A    between atoms: _461  and  _463
REMARK  196  A    between atoms: _463  and  _464
REMARK  197  A    between atoms: _463  and  _466
REMARK  198  A    between atoms: _466  and  _467
REMARK  199  A    between atoms: _470  and  _472
REMARK  200  A    between atoms: _472  and  _473
REMARK  201  A    between atoms: _472  and  _475
REMARK  202  A    between atoms: _475  and  _476
REMARK  203  A    between atoms: _478  and  _480
REMARK  204  A    between atoms: _480  and  _481
REMARK  205  A    between atoms: _480  and  _483
REMARK  206  A    between atoms: _483  and  _484
REMARK  207  A    between atoms: _494  and  _496
REMARK  208  A    between atoms: _496  and  _497
REMARK  209  A    between atoms: _499  and  _501
REMARK  210  A    between atoms: _501  and  _502
REMARK  211  A    between atoms: _501  and  _504
REMARK  212  A    between atoms: _504  and  _505
REMARK  213  A    between atoms: _505  and  _506
REMARK  214  A    between atoms: _509  and  _511
REMARK  215  A    between atoms: _511  and  _512
REMARK  216  A    between atoms: _514  and  _516
REMARK  217  A    between atoms: _516  and  _517
REMARK  218  A    between atoms: _516  and  _519
REMARK  219  A    between atoms: _519  and  _520
REMARK  220  A    between atoms: _521  and  _523
REMARK  221  A    between atoms: _523  and  _524
REMARK  222  A    between atoms: _527  and  _529
REMARK  223  A    between atoms: _529  and  _530
REMARK  224  A    between atoms: _529  and  _532
REMARK  225  A    between atoms: _532  and  _533
REMARK  226  A    between atoms: _533  and  _534
REMARK  227  A    between atoms: _539  and  _541
REMARK  228  A    between atoms: _541  and  _542
REMARK  229  A    between atoms: _541  and  _544
REMARK  230  A    between atoms: _544  and  _545
REMARK  231  A    between atoms: _545  and  _546
REMARK  232  A    between atoms: _546  and  _547
REMARK  233  A    between atoms: _557  and  _558
REMARK  234  A    between atoms: _563  and  _565
REMARK  235  A    between atoms: _565  and  _566
REMARK  236  A    between atoms: _568  and  _570
REMARK  237  A    between atoms: _570  and  _571
REMARK  238  A    between atoms: _570  and  _573
REMARK  239  A    between atoms: _576  and  _578
REMARK  240  A    between atoms: _578  and  _579
REMARK  241  A    between atoms: _578  and  _581
REMARK  242  A    between atoms: _581  and  _582
REMARK  243  A    between atoms: _587  and  _588
REMARK  244  A    between atoms: _590  and  _592
REMARK  245  A    between atoms: _592  and  _593
REMARK  246  A    between atoms: _592  and  _595
REMARK  247  A    between atoms: _595  and  _596
REMARK                            x       y       z     vdW  Elec       q    Type
REMARK                         _______ _______ _______ _____ _____    ______ ____
ROOT
ATOM      1  O   HOH     1      43.797 -16.746  21.383  0.00  0.00    +0.000 OA
ENDROOT
TORSDOF 0
REMARK  Name = ../refined-set-2016/4y8x/4y8x_pocket.pdb
REMARK  247 active torsions:
REMARK  status: ('A' for Active; 'I' for Inactive)
REMARK    1  A    between atoms: _1  and  _5
REMARK    2  A    between atoms: _5  and  _6
REMARK    3  A    between atoms: _5  and  _8
REMARK    4  A    between atoms: _8  and  _9
REMARK    5  A    between atoms: _12  and  _14
REMARK    6  A    between atoms: _14  and  _15
REMARK    7  A    between atoms: _14  and  _17
REMARK    8  A    between atoms: _20  and  _22
REMARK    9  A    between atoms: _22  and  _23
REMARK   10  A    between atoms: _22  and  _25
REMARK   11  A    between atoms: _25  and  _26
REMARK   12  A    between atoms: _29  and  _31
REMARK   13  A    between atoms: _31  and  _32
REMARK   14  A    between atoms: _31  and  _34
REMARK   15  A    between atoms: _34  and  _35
REMARK   16  A    between atoms: _38  and  _40
REMARK   17  A    between atoms: _40  and  _41
REMARK   18  A    between atoms: _40  and  _43
REMARK   19  A    between atoms: _43  and  _44
REMARK   20  A    between atoms: _49  and  _51
REMARK   21  A    between atoms: _51  and  _52
REMARK   22  A    between atoms: _51  and  _54
REMARK   23  A    between atoms: _54  and  _55
REMARK   24  A    between atoms: _58  and  _60
REMARK   25  A    between atoms: _60  and  _61
REMARK   26  A    between atoms: _60  and  _63
REMARK   27  A    between atoms: _63  and  _64
REMARK   28  A    between atoms: _67  and  _69
REMARK   29  A    between atoms: _69  and  _70
REMARK   30  A    between atoms: _69  and  _72
REMARK   31  A    between atoms: _72  and  _73
REMARK   32  A    between atoms: _73  and  _74
REMARK   33  A    between atoms: _79  and  _81
REMARK   34  A    between atoms: _81  and  _82
REMARK   35  A    between atoms: _81  and  _84
REMARK   36  A    between atoms: _84  and  _85
REMARK   37  A    between atoms: _85  and  _86
REMARK   38  A    between atoms: _86  and  _87
REMARK   39  A    between atoms: _96  and  _98
REMARK   40  A    between atoms: _98  and  _99
REMARK   41  A    between atoms: _98  and  _101
REMARK   42  A    between atoms: _101  and  _102
REMARK   43  A    between atoms: _107  and  _109
REMARK   44  A    between atoms: _109  and  _110
REMARK   45  A    between atoms: _109  and  _112
REMARK   46  A    between atoms: _112  and  _113
REMARK   47  A    between atoms: _116  and  _118
REMARK   48  A    between atoms: _118  and  _119
REMARK   49  A    between atoms: _118  and  _121
REMARK   50  A    between atoms: _121  and  _122
REMARK   51  A    between atoms: _122  and  _157
REMARK   52  A    between atoms: _123  and  _125
REMARK   53  A    between atoms: _125  and  _126
REMARK   54  A    between atoms: _128  and  _130
REMARK   55  A    between atoms: _130  and  _131
REMARK   56  A    between atoms: _134  and  _136
REMARK   57  A    between atoms: _136  and  _137
REMARK   58  A    between atoms: _140  and  _142
REMARK   59  A    between atoms: _142  and  _143
REMARK   60  A    between atoms: _142  and  _145
REMARK   61  A    between atoms: _145  and  _146
REMARK   62  A    between atoms: _151  and  _153
REMARK   63  A    between atoms: _153  and  _154
REMARK   64  A    between atoms: _153  and  _156
REMARK   65  A    between atoms: _156  and  _157
REMARK   66  A    between atoms: _158  and  _160
REMARK   67  A    between atoms: _160  and  _161
REMARK   68  A    between atoms: _160  and  _163
REMARK   69  A    between atoms: _163  and  _164
REMARK   70  A    between atoms: _170  and  _172
REMARK   71  A    between atoms: _172  and  _173
REMARK   72  A    between atoms: _172  and  _175
REMARK   73  A    between atoms: _175  and  _176
REMARK   74  A    between atoms: _181  and  _182
REMARK   75  A    between atoms: _184  and  _186
REMARK   76  A    between atoms: _186  and  _187
REMARK   77  A    between atoms: _186  and  _189
REMARK   78  A    between atoms: _192  and  _194
REMARK   79  A    between atoms: _194  and  _195
REMARK   80  A    between atoms: _194  and  _197
REMARK   81  A    between atoms: _197  and  _198
REMARK   82  A    between atoms: _198  and  _199
REMARK   83  A    between atoms: _204  and  _206
REMARK   84  A    between atoms: _206  and  _207
REMARK   85  A    between atoms: _210  and  _212
REMARK   86  A    between atoms: _212  and  _213
REMARK   87  A    between atoms: _212  and  _215
REMARK   88  A    between atoms: _215  and  _216
REMARK   89  A    between atoms: _219  and  _221
REMARK   90  A    between atoms: _221  and  _222
REMARK   91  A    between atoms: _221  and  _224
REMARK   92  A    between atoms: _227  and  _229
REMARK   93  A    between atoms: _229  and  _230
REMARK   94  A    between atoms: _229  and  _232
REMARK   95  A    between atoms: _232  and  _233
REMARK   96  A    between atoms: _243  and  _245
REMARK   97  A    between atoms: _245  and  _246
REMARK   98  A    between atoms: _248  and  _250
REMARK   99  A    between atoms: _250  and  _251
REMARK  100  A    between atoms: _250  and  _253
REMARK  101  A    between atoms: _253  and  _254
REMARK  102  A    between atoms: _259  and  _260
REMARK  103  A    between atoms: _262  and  _264
REMARK  104  A    between atoms: _264  and  _265
REMARK  105  A    between atoms: _264  and  _267
REMARK  106  A    between atoms: _267  and  _268
REMARK  107  A    between atoms: _268  and  _269
REMARK  108  A    between atoms: _269  and  _270
REMARK  109  A    between atoms: _270  and  _271
REMARK  110  A    between atoms: _275  and  _277
REMARK  111  A    between atoms: _277  and  _278
REMARK  112  A    between atoms: _277  and  _280
REMARK  113  A    between atoms: _280  and  _281
REMARK  114  A    between atoms: _284  and  _286
REMARK  115  A    between atoms: _286  and  _287
REMARK  116  A    between atoms: _286  and  _289
REMARK  117  A    between atoms: _289  and  _290
REMARK  118  A    between atoms: _293  and  _295
REMARK  119  A    between atoms: _295  and  _296
REMARK  120  A    between atoms: _295  and  _298
REMARK  121  A    between atoms: _298  and  _299
REMARK  122  A    between atoms: _299  and  _300
REMARK  123  A    between atoms: _300  and  _301
REMARK  124  A    between atoms: _301  and  _302
REMARK  125  A    between atoms: _306  and  _308
REMARK  126  A    between atoms: _308  and  _309
REMARK  127  A    between atoms: _308  and  _311
REMARK  128  A    between atoms: _311  and  _312
REMARK  129  A    between atoms: _315  and  _317
REMARK  130  A    between atoms: _317  and  _318
REMARK  131  A    between atoms: _317  and  _320
REMARK  132  A    between atoms: _320  and  _321
REMARK  133  A    between atoms: _321  and  _322
REMARK  134  A    between atoms: _327  and  _329
REMARK  135  A    between atoms: _329  and  _330
REMARK  136  A    between atoms: _329  and  _332
REMARK  137  A    between atoms: _332  and  _333
REMARK  138  A    between atoms: _336  and  _338
REMARK  139  A    between atoms: _338  and  _339
REMARK  140  A    between atoms: _338  and  _341
REMARK  141  A    between atoms: _341  and  _342
REMARK  142  A    between atoms: _347  and  _348
REMARK  143  A    between atoms: _350  and  _352
REMARK  144  A    between atoms: _352  and  _353
REMARK  145  A    between atoms: _352  and  _355
REMARK  146  A    between atoms: _355  and  _356
REMARK  147  A    between atoms: _359  and  _361
REMARK  148  A    between atoms: _361  and  _362
REMARK  149  A    between atoms: _361  and  _364
REMARK  150  A    between atoms: _366  and  _368
REMARK  151  A    between atoms: _368  and  _369
REMARK  152  A    between atoms: _372  and  _374
REMARK  153  A    between atoms: _374  and  _375
REMARK  154  A    between atoms: _374  and  _377
REMARK  155  A    between atoms: _377  and  _378
REMARK  156  A    between atoms: _378  and  _379
REMARK  157  A    between atoms: _379  and  _380
REMARK  158  A    between atoms: _380  and  _381
REMARK  159  A    between atoms: _385  and  _387
REMARK  160  A    between atoms: _387  and  _388
REMARK  161  A    between atoms: _387  and  _390
REMARK  162  A    between atoms: _390  and  _391
REMARK  163  A    between atoms: _394  and  _396
REMARK  164  A    between atoms: _396  and  _397
REMARK  165  A    between atoms: _400  and  _402
REMARK  166  A    between atoms: _402  and  _403
REMARK  167  A    between atoms: _402  and  _405
REMARK  168  A    between atoms: _405  and  _406
REMARK  169  A    between atoms: _406  and  _520
REMARK  170  A    between atoms: _407  and  _409
REMARK  171  A    between atoms: _409  and  _410
REMARK  172  A    between atoms: _409  and  _412
REMARK  173  A    between atoms: _412  and  _413
REMARK  174  A    between atoms: _413  and  _414
REMARK  175  A    between atoms: _414  and  _415
REMARK  176  A    between atoms: _415  and  _416
REMARK  177  A    between atoms: _420  and  _422
REMARK  178  A    between atoms: _422  and  _423
REMARK  179  A    between atoms: _425  and  _427
REMARK  180  A    between atoms: _427  and  _428
REMARK  181  A    between atoms: _427  and  _430
REMARK  182  A    between atoms: _430  and  _431
REMARK  183  A    between atoms: _434  and  _436
REMARK  184  A    between atoms: _436  and  _437
REMARK  185  A    between atoms: _436  and  _439
REMARK  186  A    between atoms: _439  and  _440
REMARK  187  A    between atoms: _442  and  _444
REMARK  188  A    between atoms: _444  and  _445
REMARK  189  A    between atoms: _447  and  _449
REMARK  190  A    between atoms: _449  and  _450
REMARK  191  A    between atoms: _452  and  _454
REMARK  192  A    between atoms: _454  and  _455
REMARK  193  A    between atoms: _454  and  _457
REMARK  194  A    between atoms: _457  and  _458
REMARK  195  A    between atoms: _461  and  _463
REMARK  196  A    between atoms: _463  and  _464
REMARK  197  A    between atoms: _463  and  _466
REMARK  198  A    between atoms: _466  and  _467
REMARK  199  A    between atoms: _470  and  _472
REMARK  200  A    between atoms: _472  and  _473
REMARK  201  A    between atoms: _472  and  _475
REMARK  202  A    between atoms: _475  and  _476
REMARK  203  A    between atoms: _478  and  _480
REMARK  204  A    between atoms: _480  and  _481
REMARK  205  A    between atoms: _480  and  _483
REMARK  206  A    between atoms: _483  and  _484
REMARK  207  A    between atoms: _494  and  _496
REMARK  208  A    between atoms: _496  and  _497
REMARK  209  A    between atoms: _499  and  _501
REMARK  210  A    between atoms: _501  and  _502
REMARK  211  A    between atoms: _501  and  _504
REMARK  212  A    between atoms: _504  and  _505
REMARK  213  A    between atoms: _505  and  _506
REMARK  214  A    between atoms: _509  and  _511
REMARK  215  A    between atoms: _511  and  _512
REMARK  216  A    between atoms: _514  and  _516
REMARK  217  A    between atoms: _516  and  _517
REMARK  218  A    between atoms: _516  and  _519
REMARK  219  A    between atoms: _519  and  _520
REMARK  220  A    between atoms: _521  and  _523
REMARK  221  A    between atoms: _523  and  _524
REMARK  222  A    between atoms: _527  and  _529
REMARK  223  A    between atoms: _529  and  _530
REMARK  224  A    between atoms: _529  and  _532
REMARK  225  A    between atoms: _532  and  _533
REMARK  226  A    between atoms: _533  and  _534
REMARK  227  A    between atoms: _539  and  _541
REMARK  228  A    between atoms: _541  and  _542
REMARK  229  A    between atoms: _541  and  _544
REMARK  230  A    between atoms: _544  and  _545
REMARK  231  A    between atoms: _545  and  _546
REMARK  232  A    between atoms: _546  and  _547
REMARK  233  A    between atoms: _557  and  _558
REMARK  234  A    between atoms: _563  and  _565
REMARK  235  A    between atoms: _565  and  _566
REMARK  236  A    between atoms: _568  and  _570
REMARK  237  A    between atoms: _570  and  _571
REMARK  238  A    between atoms: _570  and  _573
REMARK  239  A    between atoms: _576  and  _578
REMARK  240  A    between atoms: _578  and  _579
REMARK  241  A    between atoms: _578  and  _581
REMARK  242  A    between atoms: _581  and  _582
REMARK  243  A    between atoms: _587  and  _588
REMARK  244  A    between atoms: _590  and  _592
REMARK  245  A    between atoms: _592  and  _593
REMARK  246  A    between atoms: _592  and  _595
REMARK  247  A    between atoms: _595  and  _596
REMARK                            x       y       z     vdW  Elec       q    Type
REMARK                         _______ _______ _______ _____ _____    ______ ____
ROOT
ATOM      1  O   HOH     1      38.473 -19.988  20.837  0.00  0.00    +0.000 OA
ENDROOT
TORSDOF 0
REMARK  Name = ../refined-set-2016/4y8x/4y8x_pocket.pdb
REMARK  247 active torsions:
REMARK  status: ('A' for Active; 'I' for Inactive)
REMARK    1  A    between atoms: _1  and  _5
REMARK    2  A    between atoms: _5  and  _6
REMARK    3  A    between atoms: _5  and  _8
REMARK    4  A    between atoms: _8  and  _9
REMARK    5  A    between atoms: _12  and  _14
REMARK    6  A    between atoms: _14  and  _15
REMARK    7  A    between atoms: _14  and  _17
REMARK    8  A    between atoms: _20  and  _22
REMARK    9  A    between atoms: _22  and  _23
REMARK   10  A    between atoms: _22  and  _25
REMARK   11  A    between atoms: _25  and  _26
REMARK   12  A    between atoms: _29  and  _31
REMARK   13  A    between atoms: _31  and  _32
REMARK   14  A    between atoms: _31  and  _34
REMARK   15  A    between atoms: _34  and  _35
REMARK   16  A    between atoms: _38  and  _40
REMARK   17  A    between atoms: _40  and  _41
REMARK   18  A    between atoms: _40  and  _43
REMARK   19  A    between atoms: _43  and  _44
REMARK   20  A    between atoms: _49  and  _51
REMARK   21  A    between atoms: _51  and  _52
REMARK   22  A    between atoms: _51  and  _54
REMARK   23  A    between atoms: _54  and  _55
REMARK   24  A    between atoms: _58  and  _60
REMARK   25  A    between atoms: _60  and  _61
REMARK   26  A    between atoms: _60  and  _63
REMARK   27  A    between atoms: _63  and  _64
REMARK   28  A    between atoms: _67  and  _69
REMARK   29  A    between atoms: _69  and  _70
REMARK   30  A    between atoms: _69  and  _72
REMARK   31  A    between atoms: _72  and  _73
REMARK   32  A    between atoms: _73  and  _74
REMARK   33  A    between atoms: _79  and  _81
REMARK   34  A    between atoms: _81  and  _82
REMARK   35  A    between atoms: _81  and  _84
REMARK   36  A    between atoms: _84  and  _85
REMARK   37  A    between atoms: _85  and  _86
REMARK   38  A    between atoms: _86  and  _87
REMARK   39  A    between atoms: _96  and  _98
REMARK   40  A    between atoms: _98  and  _99
REMARK   41  A    between atoms: _98  and  _101
REMARK   42  A    between atoms: _101  and  _102
REMARK   43  A    between atoms: _107  and  _109
REMARK   44  A    between atoms: _109  and  _110
REMARK   45  A    between atoms: _109  and  _112
REMARK   46  A    between atoms: _112  and  _113
REMARK   47  A    between atoms: _116  and  _118
REMARK   48  A    between atoms: _118  and  _119
REMARK   49  A    between atoms: _118  and  _121
REMARK   50  A    between atoms: _121  and  _122
REMARK   51  A    between atoms: _122  and  _157
REMARK   52  A    between atoms: _123  and  _125
REMARK   53  A    between atoms: _125  and  _126
REMARK   54  A    between atoms: _128  and  _130
REMARK   55  A    between atoms: _130  and  _131
REMARK   56  A    between atoms: _134  and  _136
REMARK   57  A    between atoms: _136  and  _137
REMARK   58  A    between atoms: _140  and  _142
REMARK   59  A    between atoms: _142  and  _143
REMARK   60  A    between atoms: _142  and  _145
REMARK   61  A    between atoms: _145  and  _146
REMARK   62  A    between atoms: _151  and  _153
REMARK   63  A    between atoms: _153  and  _154
REMARK   64  A    between atoms: _153  and  _156
REMARK   65  A    between atoms: _156  and  _157
REMARK   66  A    between atoms: _158  and  _160
REMARK   67  A    between atoms: _160  and  _161
REMARK   68  A    between atoms: _160  and  _163
REMARK   69  A    between atoms: _163  and  _164
REMARK   70  A    between atoms: _170  and  _172
REMARK   71  A    between atoms: _172  and  _173
REMARK   72  A    between atoms: _172  and  _175
REMARK   73  A    between atoms: _175  and  _176
REMARK   74  A    between atoms: _181  and  _182
REMARK   75  A    between atoms: _184  and  _186
REMARK   76  A    between atoms: _186  and  _187
REMARK   77  A    between atoms: _186  and  _189
REMARK   78  A    between atoms: _192  and  _194
REMARK   79  A    between atoms: _194  and  _195
REMARK   80  A    between atoms: _194  and  _197
REMARK   81  A    between atoms: _197  and  _198
REMARK   82  A    between atoms: _198  and  _199
REMARK   83  A    between atoms: _204  and  _206
REMARK   84  A    between atoms: _206  and  _207
REMARK   85  A    between atoms: _210  and  _212
REMARK   86  A    between atoms: _212  and  _213
REMARK   87  A    between atoms: _212  and  _215
REMARK   88  A    between atoms: _215  and  _216
REMARK   89  A    between atoms: _219  and  _221
REMARK   90  A    between atoms: _221  and  _222
REMARK   91  A    between atoms: _221  and  _224
REMARK   92  A    between atoms: _227  and  _229
REMARK   93  A    between atoms: _229  and  _230
REMARK   94  A    between atoms: _229  and  _232
REMARK   95  A    between atoms: _232  and  _233
REMARK   96  A    between atoms: _243  and  _245
REMARK   97  A    between atoms: _245  and  _246
REMARK   98  A    between atoms: _248  and  _250
REMARK   99  A    between atoms: _250  and  _251
REMARK  100  A    between atoms: _250  and  _253
REMARK  101  A    between atoms: _253  and  _254
REMARK  102  A    between atoms: _259  and  _260
REMARK  103  A    between atoms: _262  and  _264
REMARK  104  A    between atoms: _264  and  _265
REMARK  105  A    between atoms: _264  and  _267
REMARK  106  A    between atoms: _267  and  _268
REMARK  107  A    between atoms: _268  and  _269
REMARK  108  A    between atoms: _269  and  _270
REMARK  109  A    between atoms: _270  and  _271
REMARK  110  A    between atoms: _275  and  _277
REMARK  111  A    between atoms: _277  and  _278
REMARK  112  A    between atoms: _277  and  _280
REMARK  113  A    between atoms: _280  and  _281
REMARK  114  A    between atoms: _284  and  _286
REMARK  115  A    between atoms: _286  and  _287
REMARK  116  A    between atoms: _286  and  _289
REMARK  117  A    between atoms: _289  and  _290
REMARK  118  A    between atoms: _293  and  _295
REMARK  119  A    between atoms: _295  and  _296
REMARK  120  A    between atoms: _295  and  _298
REMARK  121  A    between atoms: _298  and  _299
REMARK  122  A    between atoms: _299  and  _300
REMARK  123  A    between atoms: _300  and  _301
REMARK  124  A    between atoms: _301  and  _302
REMARK  125  A    between atoms: _306  and  _308
REMARK  126  A    between atoms: _308  and  _309
REMARK  127  A    between atoms: _308  and  _311
REMARK  128  A    between atoms: _311  and  _312
REMARK  129  A    between atoms: _315  and  _317
REMARK  130  A    between atoms: _317  and  _318
REMARK  131  A    between atoms: _317  and  _320
REMARK  132  A    between atoms: _320  and  _321
REMARK  133  A    between atoms: _321  and  _322
REMARK  134  A    between atoms: _327  and  _329
REMARK  135  A    between atoms: _329  and  _330
REMARK  136  A    between atoms: _329  and  _332
REMARK  137  A    between atoms: _332  and  _333
REMARK  138  A    between atoms: _336  and  _338
REMARK  139  A    between atoms: _338  and  _339
REMARK  140  A    between atoms: _338  and  _341
REMARK  141  A    between atoms: _341  and  _342
REMARK  142  A    between atoms: _347  and  _348
REMARK  143  A    between atoms: _350  and  _352
REMARK  144  A    between atoms: _352  and  _353
REMARK  145  A    between atoms: _352  and  _355
REMARK  146  A    between atoms: _355  and  _356
REMARK  147  A    between atoms: _359  and  _361
REMARK  148  A    between atoms: _361  and  _362
REMARK  149  A    between atoms: _361  and  _364
REMARK  150  A    between atoms: _366  and  _368
REMARK  151  A    between atoms: _368  and  _369
REMARK  152  A    between atoms: _372  and  _374
REMARK  153  A    between atoms: _374  and  _375
REMARK  154  A    between atoms: _374  and  _377
REMARK  155  A    between atoms: _377  and  _378
REMARK  156  A    between atoms: _378  and  _379
REMARK  157  A    between atoms: _379  and  _380
REMARK  158  A    between atoms: _380  and  _381
REMARK  159  A    between atoms: _385  and  _387
REMARK  160  A    between atoms: _387  and  _388
REMARK  161  A    between atoms: _387  and  _390
REMARK  162  A    between atoms: _390  and  _391
REMARK  163  A    between atoms: _394  and  _396
REMARK  164  A    between atoms: _396  and  _397
REMARK  165  A    between atoms: _400  and  _402
REMARK  166  A    between atoms: _402  and  _403
REMARK  167  A    between atoms: _402  and  _405
REMARK  168  A    between atoms: _405  and  _406
REMARK  169  A    between atoms: _406  and  _520
REMARK  170  A    between atoms: _407  and  _409
REMARK  171  A    between atoms: _409  and  _410
REMARK  172  A    between atoms: _409  and  _412
REMARK  173  A    between atoms: _412  and  _413
REMARK  174  A    between atoms: _413  and  _414
REMARK  175  A    between atoms: _414  and  _415
REMARK  176  A    between atoms: _415  and  _416
REMARK  177  A    between atoms: _420  and  _422
REMARK  178  A    between atoms: _422  and  _423
REMARK  179  A    between atoms: _425  and  _427
REMARK  180  A    between atoms: _427  and  _428
REMARK  181  A    between atoms: _427  and  _430
REMARK  182  A    between atoms: _430  and  _431
REMARK  183  A    between atoms: _434  and  _436
REMARK  184  A    between atoms: _436  and  _437
REMARK  185  A    between atoms: _436  and  _439
REMARK  186  A    between atoms: _439  and  _440
REMARK  187  A    between atoms: _442  and  _444
REMARK  188  A    between atoms: _444  and  _445
REMARK  189  A    between atoms: _447  and  _449
REMARK  190  A    between atoms: _449  and  _450
REMARK  191  A    between atoms: _452  and  _454
REMARK  192  A    between atoms: _454  and  _455
REMARK  193  A    between atoms: _454  and  _457
REMARK  194  A    between atoms: _457  and  _458
REMARK  195  A    between atoms: _461  and  _463
REMARK  196  A    between atoms: _463  and  _464
REMARK  197  A    between atoms: _463  and  _466
REMARK  198  A    between atoms: _466  and  _467
REMARK  199  A    between atoms: _470  and  _472
REMARK  200  A    between atoms: _472  and  _473
REMARK  201  A    between atoms: _472  and  _475
REMARK  202  A    between atoms: _475  and  _476
REMARK  203  A    between atoms: _478  and  _480
REMARK  204  A    between atoms: _480  and  _481
REMARK  205  A    between atoms: _480  and  _483
REMARK  206  A    between atoms: _483  and  _484
REMARK  207  A    between atoms: _494  and  _496
REMARK  208  A    between atoms: _496  and  _497
REMARK  209  A    between atoms: _499  and  _501
REMARK  210  A    between atoms: _501  and  _502
REMARK  211  A    between atoms: _501  and  _504
REMARK  212  A    between atoms: _504  and  _505
REMARK  213  A    between atoms: _505  and  _506
REMARK  214  A    between atoms: _509  and  _511
REMARK  215  A    between atoms: _511  and  _512
REMARK  216  A    between atoms: _514  and  _516
REMARK  217  A    between atoms: _516  and  _517
REMARK  218  A    between atoms: _516  and  _519
REMARK  219  A    between atoms: _519  and  _520
REMARK  220  A    between atoms: _521  and  _523
REMARK  221  A    between atoms: _523  and  _524
REMARK  222  A    between atoms: _527  and  _529
REMARK  223  A    between atoms: _529  and  _530
REMARK  224  A    between atoms: _529  and  _532
REMARK  225  A    between atoms: _532  and  _533
REMARK  226  A    between atoms: _533  and  _534
REMARK  227  A    between atoms: _539  and  _541
REMARK  228  A    between atoms: _541  and  _542
REMARK  229  A    between atoms: _541  and  _544
REMARK  230  A    between atoms: _544  and  _545
REMARK  231  A    between atoms: _545  and  _546
REMARK  232  A    between atoms: _546  and  _547
REMARK  233  A    between atoms: _557  and  _558
REMARK  234  A    between atoms: _563  and  _565
REMARK  235  A    between atoms: _565  and  _566
REMARK  236  A    between atoms: _568  and  _570
REMARK  237  A    between atoms: _570  and  _571
REMARK  238  A    between atoms: _570  and  _573
REMARK  239  A    between atoms: _576  and  _578
REMARK  240  A    between atoms: _578  and  _579
REMARK  241  A    between atoms: _578  and  _581
REMARK  242  A    between atoms: _581  and  _582
REMARK  243  A    between atoms: _587  and  _588
REMARK  244  A    between atoms: _590  and  _592
REMARK  245  A    between atoms: _592  and  _593
REMARK  246  A    between atoms: _592  and  _595
REMARK  247  A    between atoms: _595  and  _596
REMARK                            x       y       z     vdW  Elec       q    Type
REMARK                         _______ _______ _______ _____ _____    ______ ____
ROOT
ATOM      1  O   HOH     1      41.639  -9.265  22.330  0.00  0.00    +0.000 OA
ENDROOT
TORSDOF 0
REMARK  Name = ../refined-set-2016/4y8x/4y8x_pocket.pdb
REMARK  247 active torsions:
REMARK  status: ('A' for Active; 'I' for Inactive)
REMARK    1  A    between atoms: _1  and  _5
REMARK    2  A    between atoms: _5  and  _6
REMARK    3  A    between atoms: _5  and  _8
REMARK    4  A    between atoms: _8  and  _9
REMARK    5  A    between atoms: _12  and  _14
REMARK    6  A    between atoms: _14  and  _15
REMARK    7  A    between atoms: _14  and  _17
REMARK    8  A    between atoms: _20  and  _22
REMARK    9  A    between atoms: _22  and  _23
REMARK   10  A    between atoms: _22  and  _25
REMARK   11  A    between atoms: _25  and  _26
REMARK   12  A    between atoms: _29  and  _31
REMARK   13  A    between atoms: _31  and  _32
REMARK   14  A    between atoms: _31  and  _34
REMARK   15  A    between atoms: _34  and  _35
REMARK   16  A    between atoms: _38  and  _40
REMARK   17  A    between atoms: _40  and  _41
REMARK   18  A    between atoms: _40  and  _43
REMARK   19  A    between atoms: _43  and  _44
REMARK   20  A    between atoms: _49  and  _51
REMARK   21  A    between atoms: _51  and  _52
REMARK   22  A    between atoms: _51  and  _54
REMARK   23  A    between atoms: _54  and  _55
REMARK   24  A    between atoms: _58  and  _60
REMARK   25  A    between atoms: _60  and  _61
REMARK   26  A    between atoms: _60  and  _63
REMARK   27  A    between atoms: _63  and  _64
REMARK   28  A    between atoms: _67  and  _69
REMARK   29  A    between atoms: _69  and  _70
REMARK   30  A    between atoms: _69  and  _72
REMARK   31  A    between atoms: _72  and  _73
REMARK   32  A    between atoms: _73  and  _74
REMARK   33  A    between atoms: _79  and  _81
REMARK   34  A    between atoms: _81  and  _82
REMARK   35  A    between atoms: _81  and  _84
REMARK   36  A    between atoms: _84  and  _85
REMARK   37  A    between atoms: _85  and  _86
REMARK   38  A    between atoms: _86  and  _87
REMARK   39  A    between atoms: _96  and  _98
REMARK   40  A    between atoms: _98  and  _99
REMARK   41  A    between atoms: _98  and  _101
REMARK   42  A    between atoms: _101  and  _102
REMARK   43  A    between atoms: _107  and  _109
REMARK   44  A    between atoms: _109  and  _110
REMARK   45  A    between atoms: _109  and  _112
REMARK   46  A    between atoms: _112  and  _113
REMARK   47  A    between atoms: _116  and  _118
REMARK   48  A    between atoms: _118  and  _119
REMARK   49  A    between atoms: _118  and  _121
REMARK   50  A    between atoms: _121  and  _122
REMARK   51  A    between atoms: _122  and  _157
REMARK   52  A    between atoms: _123  and  _125
REMARK   53  A    between atoms: _125  and  _126
REMARK   54  A    between atoms: _128  and  _130
REMARK   55  A    between atoms: _130  and  _131
REMARK   56  A    between atoms: _134  and  _136
REMARK   57  A    between atoms: _136  and  _137
REMARK   58  A    between atoms: _140  and  _142
REMARK   59  A    between atoms: _142  and  _143
REMARK   60  A    between atoms: _142  and  _145
REMARK   61  A    between atoms: _145  and  _146
REMARK   62  A    between atoms: _151  and  _153
REMARK   63  A    between atoms: _153  and  _154
REMARK   64  A    between atoms: _153  and  _156
REMARK   65  A    between atoms: _156  and  _157
REMARK   66  A    between atoms: _158  and  _160
REMARK   67  A    between atoms: _160  and  _161
REMARK   68  A    between atoms: _160  and  _163
REMARK   69  A    between atoms: _163  and  _164
REMARK   70  A    between atoms: _170  and  _172
REMARK   71  A    between atoms: _172  and  _173
REMARK   72  A    between atoms: _172  and  _175
REMARK   73  A    between atoms: _175  and  _176
REMARK   74  A    between atoms: _181  and  _182
REMARK   75  A    between atoms: _184  and  _186
REMARK   76  A    between atoms: _186  and  _187
REMARK   77  A    between atoms: _186  and  _189
REMARK   78  A    between atoms: _192  and  _194
REMARK   79  A    between atoms: _194  and  _195
REMARK   80  A    between atoms: _194  and  _197
REMARK   81  A    between atoms: _197  and  _198
REMARK   82  A    between atoms: _198  and  _199
REMARK   83  A    between atoms: _204  and  _206
REMARK   84  A    between atoms: _206  and  _207
REMARK   85  A    between atoms: _210  and  _212
REMARK   86  A    between atoms: _212  and  _213
REMARK   87  A    between atoms: _212  and  _215
REMARK   88  A    between atoms: _215  and  _216
REMARK   89  A    between atoms: _219  and  _221
REMARK   90  A    between atoms: _221  and  _222
REMARK   91  A    between atoms: _221  and  _224
REMARK   92  A    between atoms: _227  and  _229
REMARK   93  A    between atoms: _229  and  _230
REMARK   94  A    between atoms: _229  and  _232
REMARK   95  A    between atoms: _232  and  _233
REMARK   96  A    between atoms: _243  and  _245
REMARK   97  A    between atoms: _245  and  _246
REMARK   98  A    between atoms: _248  and  _250
REMARK   99  A    between atoms: _250  and  _251
REMARK  100  A    between atoms: _250  and  _253
REMARK  101  A    between atoms: _253  and  _254
REMARK  102  A    between atoms: _259  and  _260
REMARK  103  A    between atoms: _262  and  _264
REMARK  104  A    between atoms: _264  and  _265
REMARK  105  A    between atoms: _264  and  _267
REMARK  106  A    between atoms: _267  and  _268
REMARK  107  A    between atoms: _268  and  _269
REMARK  108  A    between atoms: _269  and  _270
REMARK  109  A    between atoms: _270  and  _271
REMARK  110  A    between atoms: _275  and  _277
REMARK  111  A    between atoms: _277  and  _278
REMARK  112  A    between atoms: _277  and  _280
REMARK  113  A    between atoms: _280  and  _281
REMARK  114  A    between atoms: _284  and  _286
REMARK  115  A    between atoms: _286  and  _287
REMARK  116  A    between atoms: _286  and  _289
REMARK  117  A    between atoms: _289  and  _290
REMARK  118  A    between atoms: _293  and  _295
REMARK  119  A    between atoms: _295  and  _296
REMARK  120  A    between atoms: _295  and  _298
REMARK  121  A    between atoms: _298  and  _299
REMARK  122  A    between atoms: _299  and  _300
REMARK  123  A    between atoms: _300  and  _301
REMARK  124  A    between atoms: _301  and  _302
REMARK  125  A    between atoms: _306  and  _308
REMARK  126  A    between atoms: _308  and  _309
REMARK  127  A    between atoms: _308  and  _311
REMARK  128  A    between atoms: _311  and  _312
REMARK  129  A    between atoms: _315  and  _317
REMARK  130  A    between atoms: _317  and  _318
REMARK  131  A    between atoms: _317  and  _320
REMARK  132  A    between atoms: _320  and  _321
REMARK  133  A    between atoms: _321  and  _322
REMARK  134  A    between atoms: _327  and  _329
REMARK  135  A    between atoms: _329  and  _330
REMARK  136  A    between atoms: _329  and  _332
REMARK  137  A    between atoms: _332  and  _333
REMARK  138  A    between atoms: _336  and  _338
REMARK  139  A    between atoms: _338  and  _339
REMARK  140  A    between atoms: _338  and  _341
REMARK  141  A    between atoms: _341  and  _342
REMARK  142  A    between atoms: _347  and  _348
REMARK  143  A    between atoms: _350  and  _352
REMARK  144  A    between atoms: _352  and  _353
REMARK  145  A    between atoms: _352  and  _355
REMARK  146  A    between atoms: _355  and  _356
REMARK  147  A    between atoms: _359  and  _361
REMARK  148  A    between atoms: _361  and  _362
REMARK  149  A    between atoms: _361  and  _364
REMARK  150  A    between atoms: _366  and  _368
REMARK  151  A    between atoms: _368  and  _369
REMARK  152  A    between atoms: _372  and  _374
REMARK  153  A    between atoms: _374  and  _375
REMARK  154  A    between atoms: _374  and  _377
REMARK  155  A    between atoms: _377  and  _378
REMARK  156  A    between atoms: _378  and  _379
REMARK  157  A    between atoms: _379  and  _380
REMARK  158  A    between atoms: _380  and  _381
REMARK  159  A    between atoms: _385  and  _387
REMARK  160  A    between atoms: _387  and  _388
REMARK  161  A    between atoms: _387  and  _390
REMARK  162  A    between atoms: _390  and  _391
REMARK  163  A    between atoms: _394  and  _396
REMARK  164  A    between atoms: _396  and  _397
REMARK  165  A    between atoms: _400  and  _402
REMARK  166  A    between atoms: _402  and  _403
REMARK  167  A    between atoms: _402  and  _405
REMARK  168  A    between atoms: _405  and  _406
REMARK  169  A    between atoms: _406  and  _520
REMARK  170  A    between atoms: _407  and  _409
REMARK  171  A    between atoms: _409  and  _410
REMARK  172  A    between atoms: _409  and  _412
REMARK  173  A    between atoms: _412  and  _413
REMARK  174  A    between atoms: _413  and  _414
REMARK  175  A    between atoms: _414  and  _415
REMARK  176  A    between atoms: _415  and  _416
REMARK  177  A    between atoms: _420  and  _422
REMARK  178  A    between atoms: _422  and  _423
REMARK  179  A    between atoms: _425  and  _427
REMARK  180  A    between atoms: _427  and  _428
REMARK  181  A    between atoms: _427  and  _430
REMARK  182  A    between atoms: _430  and  _431
REMARK  183  A    between atoms: _434  and  _436
REMARK  184  A    between atoms: _436  and  _437
REMARK  185  A    between atoms: _436  and  _439
REMARK  186  A    between atoms: _439  and  _440
REMARK  187  A    between atoms: _442  and  _444
REMARK  188  A    between atoms: _444  and  _445
REMARK  189  A    between atoms: _447  and  _449
REMARK  190  A    between atoms: _449  and  _450
REMARK  191  A    between atoms: _452  and  _454
REMARK  192  A    between atoms: _454  and  _455
REMARK  193  A    between atoms: _454  and  _457
REMARK  194  A    between atoms: _457  and  _458
REMARK  195  A    between atoms: _461  and  _463
REMARK  196  A    between atoms: _463  and  _464
REMARK  197  A    between atoms: _463  and  _466
REMARK  198  A    between atoms: _466  and  _467
REMARK  199  A    between atoms: _470  and  _472
REMARK  200  A    between atoms: _472  and  _473
REMARK  201  A    between atoms: _472  and  _475
REMARK  202  A    between atoms: _475  and  _476
REMARK  203  A    between atoms: _478  and  _480
REMARK  204  A    between atoms: _480  and  _481
REMARK  205  A    between atoms: _480  and  _483
REMARK  206  A    between atoms: _483  and  _484
REMARK  207  A    between atoms: _494  and  _496
REMARK  208  A    between atoms: _496  and  _497
REMARK  209  A    between atoms: _499  and  _501
REMARK  210  A    between atoms: _501  and  _502
REMARK  211  A    between atoms: _501  and  _504
REMARK  212  A    between atoms: _504  and  _505
REMARK  213  A    between atoms: _505  and  _506
REMARK  214  A    between atoms: _509  and  _511
REMARK  215  A    between atoms: _511  and  _512
REMARK  216  A    between atoms: _514  and  _516
REMARK  217  A    between atoms: _516  and  _517
REMARK  218  A    between atoms: _516  and  _519
REMARK  219  A    between atoms: _519  and  _520
REMARK  220  A    between atoms: _521  and  _523
REMARK  221  A    between atoms: _523  and  _524
REMARK  222  A    between atoms: _527  and  _529
REMARK  223  A    between atoms: _529  and  _530
REMARK  224  A    between atoms: _529  and  _532
REMARK  225  A    between atoms: _532  and  _533
REMARK  226  A    between atoms: _533  and  _534
REMARK  227  A    between atoms: _539  and  _541
REMARK  228  A    between atoms: _541  and  _542
REMARK  229  A    between atoms: _541  and  _544
REMARK  230  A    between atoms: _544  and  _545
REMARK  231  A    between atoms: _545  and  _546
REMARK  232  A    between atoms: _546  and  _547
REMARK  233  A    between atoms: _557  and  _558
REMARK  234  A    between atoms: _563  and  _565
REMARK  235  A    between atoms: _565  and  _566
REMARK  236  A    between atoms: _568  and  _570
REMARK  237  A    between atoms: _570  and  _571
REMARK  238  A    between atoms: _570  and  _573
REMARK  239  A    between atoms: _576  and  _578
REMARK  240  A    between atoms: _578  and  _579
REMARK  241  A    between atoms: _578  and  _581
REMARK  242  A    between atoms: _581  and  _582
REMARK  243  A    between atoms: _587  and  _588
REMARK  244  A    between atoms: _590  and  _592
REMARK  245  A    between atoms: _592  and  _593
REMARK  246  A    between atoms: _592  and  _595
REMARK  247  A    between atoms: _595  and  _596
REMARK                            x       y       z     vdW  Elec       q    Type
REMARK                         _______ _______ _______ _____ _____    ______ ____
ROOT
ATOM      1  O   HOH     1      34.330 -24.968  23.956  0.00  0.00    +0.000 OA
ENDROOT
TORSDOF 0
REMARK  Name = ../refined-set-2016/4y8x/4y8x_pocket.pdb
REMARK  247 active torsions:
REMARK  status: ('A' for Active; 'I' for Inactive)
REMARK    1  A    between atoms: _1  and  _5
REMARK    2  A    between atoms: _5  and  _6
REMARK    3  A    between atoms: _5  and  _8
REMARK    4  A    between atoms: _8  and  _9
REMARK    5  A    between atoms: _12  and  _14
REMARK    6  A    between atoms: _14  and  _15
REMARK    7  A    between atoms: _14  and  _17
REMARK    8  A    between atoms: _20  and  _22
REMARK    9  A    between atoms: _22  and  _23
REMARK   10  A    between atoms: _22  and  _25
REMARK   11  A    between atoms: _25  and  _26
REMARK   12  A    between atoms: _29  and  _31
REMARK   13  A    between atoms: _31  and  _32
REMARK   14  A    between atoms: _31  and  _34
REMARK   15  A    between atoms: _34  and  _35
REMARK   16  A    between atoms: _38  and  _40
REMARK   17  A    between atoms: _40  and  _41
REMARK   18  A    between atoms: _40  and  _43
REMARK   19  A    between atoms: _43  and  _44
REMARK   20  A    between atoms: _49  and  _51
REMARK   21  A    between atoms: _51  and  _52
REMARK   22  A    between atoms: _51  and  _54
REMARK   23  A    between atoms: _54  and  _55
REMARK   24  A    between atoms: _58  and  _60
REMARK   25  A    between atoms: _60  and  _61
REMARK   26  A    between atoms: _60  and  _63
REMARK   27  A    between atoms: _63  and  _64
REMARK   28  A    between atoms: _67  and  _69
REMARK   29  A    between atoms: _69  and  _70
REMARK   30  A    between atoms: _69  and  _72
REMARK   31  A    between atoms: _72  and  _73
REMARK   32  A    between atoms: _73  and  _74
REMARK   33  A    between atoms: _79  and  _81
REMARK   34  A    between atoms: _81  and  _82
REMARK   35  A    between atoms: _81  and  _84
REMARK   36  A    between atoms: _84  and  _85
REMARK   37  A    between atoms: _85  and  _86
REMARK   38  A    between atoms: _86  and  _87
REMARK   39  A    between atoms: _96  and  _98
REMARK   40  A    between atoms: _98  and  _99
REMARK   41  A    between atoms: _98  and  _101
REMARK   42  A    between atoms: _101  and  _102
REMARK   43  A    between atoms: _107  and  _109
REMARK   44  A    between atoms: _109  and  _110
REMARK   45  A    between atoms: _109  and  _112
REMARK   46  A    between atoms: _112  and  _113
REMARK   47  A    between atoms: _116  and  _118
REMARK   48  A    between atoms: _118  and  _119
REMARK   49  A    between atoms: _118  and  _121
REMARK   50  A    between atoms: _121  and  _122
REMARK   51  A    between atoms: _122  and  _157
REMARK   52  A    between atoms: _123  and  _125
REMARK   53  A    between atoms: _125  and  _126
REMARK   54  A    between atoms: _128  and  _130
REMARK   55  A    between atoms: _130  and  _131
REMARK   56  A    between atoms: _134  and  _136
REMARK   57  A    between atoms: _136  and  _137
REMARK   58  A    between atoms: _140  and  _142
REMARK   59  A    between atoms: _142  and  _143
REMARK   60  A    between atoms: _142  and  _145
REMARK   61  A    between atoms: _145  and  _146
REMARK   62  A    between atoms: _151  and  _153
REMARK   63  A    between atoms: _153  and  _154
REMARK   64  A    between atoms: _153  and  _156
REMARK   65  A    between atoms: _156  and  _157
REMARK   66  A    between atoms: _158  and  _160
REMARK   67  A    between atoms: _160  and  _161
REMARK   68  A    between atoms: _160  and  _163
REMARK   69  A    between atoms: _163  and  _164
REMARK   70  A    between atoms: _170  and  _172
REMARK   71  A    between atoms: _172  and  _173
REMARK   72  A    between atoms: _172  and  _175
REMARK   73  A    between atoms: _175  and  _176
REMARK   74  A    between atoms: _181  and  _182
REMARK   75  A    between atoms: _184  and  _186
REMARK   76  A    between atoms: _186  and  _187
REMARK   77  A    between atoms: _186  and  _189
REMARK   78  A    between atoms: _192  and  _194
REMARK   79  A    between atoms: _194  and  _195
REMARK   80  A    between atoms: _194  and  _197
REMARK   81  A    between atoms: _197  and  _198
REMARK   82  A    between atoms: _198  and  _199
REMARK   83  A    between atoms: _204  and  _206
REMARK   84  A    between atoms: _206  and  _207
REMARK   85  A    between atoms: _210  and  _212
REMARK   86  A    between atoms: _212  and  _213
REMARK   87  A    between atoms: _212  and  _215
REMARK   88  A    between atoms: _215  and  _216
REMARK   89  A    between atoms: _219  and  _221
REMARK   90  A    between atoms: _221  and  _222
REMARK   91  A    between atoms: _221  and  _224
REMARK   92  A    between atoms: _227  and  _229
REMARK   93  A    between atoms: _229  and  _230
REMARK   94  A    between atoms: _229  and  _232
REMARK   95  A    between atoms: _232  and  _233
REMARK   96  A    between atoms: _243  and  _245
REMARK   97  A    between atoms: _245  and  _246
REMARK   98  A    between atoms: _248  and  _250
REMARK   99  A    between atoms: _250  and  _251
REMARK  100  A    between atoms: _250  and  _253
REMARK  101  A    between atoms: _253  and  _254
REMARK  102  A    between atoms: _259  and  _260
REMARK  103  A    between atoms: _262  and  _264
REMARK  104  A    between atoms: _264  and  _265
REMARK  105  A    between atoms: _264  and  _267
REMARK  106  A    between atoms: _267  and  _268
REMARK  107  A    between atoms: _268  and  _269
REMARK  108  A    between atoms: _269  and  _270
REMARK  109  A    between atoms: _270  and  _271
REMARK  110  A    between atoms: _275  and  _277
REMARK  111  A    between atoms: _277  and  _278
REMARK  112  A    between atoms: _277  and  _280
REMARK  113  A    between atoms: _280  and  _281
REMARK  114  A    between atoms: _284  and  _286
REMARK  115  A    between atoms: _286  and  _287
REMARK  116  A    between atoms: _286  and  _289
REMARK  117  A    between atoms: _289  and  _290
REMARK  118  A    between atoms: _293  and  _295
REMARK  119  A    between atoms: _295  and  _296
REMARK  120  A    between atoms: _295  and  _298
REMARK  121  A    between atoms: _298  and  _299
REMARK  122  A    between atoms: _299  and  _300
REMARK  123  A    between atoms: _300  and  _301
REMARK  124  A    between atoms: _301  and  _302
REMARK  125  A    between atoms: _306  and  _308
REMARK  126  A    between atoms: _308  and  _309
REMARK  127  A    between atoms: _308  and  _311
REMARK  128  A    between atoms: _311  and  _312
REMARK  129  A    between atoms: _315  and  _317
REMARK  130  A    between atoms: _317  and  _318
REMARK  131  A    between atoms: _317  and  _320
REMARK  132  A    between atoms: _320  and  _321
REMARK  133  A    between atoms: _321  and  _322
REMARK  134  A    between atoms: _327  and  _329
REMARK  135  A    between atoms: _329  and  _330
REMARK  136  A    between atoms: _329  and  _332
REMARK  137  A    between atoms: _332  and  _333
REMARK  138  A    between atoms: _336  and  _338
REMARK  139  A    between atoms: _338  and  _339
REMARK  140  A    between atoms: _338  and  _341
REMARK  141  A    between atoms: _341  and  _342
REMARK  142  A    between atoms: _347  and  _348
REMARK  143  A    between atoms: _350  and  _352
REMARK  144  A    between atoms: _352  and  _353
REMARK  145  A    between atoms: _352  and  _355
REMARK  146  A    between atoms: _355  and  _356
REMARK  147  A    between atoms: _359  and  _361
REMARK  148  A    between atoms: _361  and  _362
REMARK  149  A    between atoms: _361  and  _364
REMARK  150  A    between atoms: _366  and  _368
REMARK  151  A    between atoms: _368  and  _369
REMARK  152  A    between atoms: _372  and  _374
REMARK  153  A    between atoms: _374  and  _375
REMARK  154  A    between atoms: _374  and  _377
REMARK  155  A    between atoms: _377  and  _378
REMARK  156  A    between atoms: _378  and  _379
REMARK  157  A    between atoms: _379  and  _380
REMARK  158  A    between atoms: _380  and  _381
REMARK  159  A    between atoms: _385  and  _387
REMARK  160  A    between atoms: _387  and  _388
REMARK  161  A    between atoms: _387  and  _390
REMARK  162  A    between atoms: _390  and  _391
REMARK  163  A    between atoms: _394  and  _396
REMARK  164  A    between atoms: _396  and  _397
REMARK  165  A    between atoms: _400  and  _402
REMARK  166  A    between atoms: _402  and  _403
REMARK  167  A    between atoms: _402  and  _405
REMARK  168  A    between atoms: _405  and  _406
REMARK  169  A    between atoms: _406  and  _520
REMARK  170  A    between atoms: _407  and  _409
REMARK  171  A    between atoms: _409  and  _410
REMARK  172  A    between atoms: _409  and  _412
REMARK  173  A    between atoms: _412  and  _413
REMARK  174  A    between atoms: _413  and  _414
REMARK  175  A    between atoms: _414  and  _415
REMARK  176  A    between atoms: _415  and  _416
REMARK  177  A    between atoms: _420  and  _422
REMARK  178  A    between atoms: _422  and  _423
REMARK  179  A    between atoms: _425  and  _427
REMARK  180  A    between atoms: _427  and  _428
REMARK  181  A    between atoms: _427  and  _430
REMARK  182  A    between atoms: _430  and  _431
REMARK  183  A    between atoms: _434  and  _436
REMARK  184  A    between atoms: _436  and  _437
REMARK  185  A    between atoms: _436  and  _439
REMARK  186  A    between atoms: _439  and  _440
REMARK  187  A    between atoms: _442  and  _444
REMARK  188  A    between atoms: _444  and  _445
REMARK  189  A    between atoms: _447  and  _449
REMARK  190  A    between atoms: _449  and  _450
REMARK  191  A    between atoms: _452  and  _454
REMARK  192  A    between atoms: _454  and  _455
REMARK  193  A    between atoms: _454  and  _457
REMARK  194  A    between atoms: _457  and  _458
REMARK  195  A    between atoms: _461  and  _463
REMARK  196  A    between atoms: _463  and  _464
REMARK  197  A    between atoms: _463  and  _466
REMARK  198  A    between atoms: _466  and  _467
REMARK  199  A    between atoms: _470  and  _472
REMARK  200  A    between atoms: _472  and  _473
REMARK  201  A    between atoms: _472  and  _475
REMARK  202  A    between atoms: _475  and  _476
REMARK  203  A    between atoms: _478  and  _480
REMARK  204  A    between atoms: _480  and  _481
REMARK  205  A    between atoms: _480  and  _483
REMARK  206  A    between atoms: _483  and  _484
REMARK  207  A    between atoms: _494  and  _496
REMARK  208  A    between atoms: _496  and  _497
REMARK  209  A    between atoms: _499  and  _501
REMARK  210  A    between atoms: _501  and  _502
REMARK  211  A    between atoms: _501  and  _504
REMARK  212  A    between atoms: _504  and  _505
REMARK  213  A    between atoms: _505  and  _506
REMARK  214  A    between atoms: _509  and  _511
REMARK  215  A    between atoms: _511  and  _512
REMARK  216  A    between atoms: _514  and  _516
REMARK  217  A    between atoms: _516  and  _517
REMARK  218  A    between atoms: _516  and  _519
REMARK  219  A    between atoms: _519  and  _520
REMARK  220  A    between atoms: _521  and  _523
REMARK  221  A    between atoms: _523  and  _524
REMARK  222  A    between atoms: _527  and  _529
REMARK  223  A    between atoms: _529  and  _530
REMARK  224  A    between atoms: _529  and  _532
REMARK  225  A    between atoms: _532  and  _533
REMARK  226  A    between atoms: _533  and  _534
REMARK  227  A    between atoms: _539  and  _541
REMARK  228  A    between atoms: _541  and  _542
REMARK  229  A    between atoms: _541  and  _544
REMARK  230  A    between atoms: _544  and  _545
REMARK  231  A    between atoms: _545  and  _546
REMARK  232  A    between atoms: _546  and  _547
REMARK  233  A    between atoms: _557  and  _558
REMARK  234  A    between atoms: _563  and  _565
REMARK  235  A    between atoms: _565  and  _566
REMARK  236  A    between atoms: _568  and  _570
REMARK  237  A    between atoms: _570  and  _571
REMARK  238  A    between atoms: _570  and  _573
REMARK  239  A    between atoms: _576  and  _578
REMARK  240  A    between atoms: _578  and  _579
REMARK  241  A    between atoms: _578  and  _581
REMARK  242  A    between atoms: _581  and  _582
REMARK  243  A    between atoms: _587  and  _588
REMARK  244  A    between atoms: _590  and  _592
REMARK  245  A    between atoms: _592  and  _593
REMARK  246  A    between atoms: _592  and  _595
REMARK  247  A    between atoms: _595  and  _596
REMARK                            x       y       z     vdW  Elec       q    Type
REMARK                         _______ _______ _______ _____ _____    ______ ____
ROOT
ATOM      1  O   HOH     1      41.787 -23.116  23.666  0.00  0.00    +0.000 OA
ENDROOT
TORSDOF 0
REMARK  Name = ../refined-set-2016/4y8x/4y8x_pocket.pdb
REMARK  247 active torsions:
REMARK  status: ('A' for Active; 'I' for Inactive)
REMARK    1  A    between atoms: _1  and  _5
REMARK    2  A    between atoms: _5  and  _6
REMARK    3  A    between atoms: _5  and  _8
REMARK    4  A    between atoms: _8  and  _9
REMARK    5  A    between atoms: _12  and  _14
REMARK    6  A    between atoms: _14  and  _15
REMARK    7  A    between atoms: _14  and  _17
REMARK    8  A    between atoms: _20  and  _22
REMARK    9  A    between atoms: _22  and  _23
REMARK   10  A    between atoms: _22  and  _25
REMARK   11  A    between atoms: _25  and  _26
REMARK   12  A    between atoms: _29  and  _31
REMARK   13  A    between atoms: _31  and  _32
REMARK   14  A    between atoms: _31  and  _34
REMARK   15  A    between atoms: _34  and  _35
REMARK   16  A    between atoms: _38  and  _40
REMARK   17  A    between atoms: _40  and  _41
REMARK   18  A    between atoms: _40  and  _43
REMARK   19  A    between atoms: _43  and  _44
REMARK   20  A    between atoms: _49  and  _51
REMARK   21  A    between atoms: _51  and  _52
REMARK   22  A    between atoms: _51  and  _54
REMARK   23  A    between atoms: _54  and  _55
REMARK   24  A    between atoms: _58  and  _60
REMARK   25  A    between atoms: _60  and  _61
REMARK   26  A    between atoms: _60  and  _63
REMARK   27  A    between atoms: _63  and  _64
REMARK   28  A    between atoms: _67  and  _69
REMARK   29  A    between atoms: _69  and  _70
REMARK   30  A    between atoms: _69  and  _72
REMARK   31  A    between atoms: _72  and  _73
REMARK   32  A    between atoms: _73  and  _74
REMARK   33  A    between atoms: _79  and  _81
REMARK   34  A    between atoms: _81  and  _82
REMARK   35  A    between atoms: _81  and  _84
REMARK   36  A    between atoms: _84  and  _85
REMARK   37  A    between atoms: _85  and  _86
REMARK   38  A    between atoms: _86  and  _87
REMARK   39  A    between atoms: _96  and  _98
REMARK   40  A    between atoms: _98  and  _99
REMARK   41  A    between atoms: _98  and  _101
REMARK   42  A    between atoms: _101  and  _102
REMARK   43  A    between atoms: _107  and  _109
REMARK   44  A    between atoms: _109  and  _110
REMARK   45  A    between atoms: _109  and  _112
REMARK   46  A    between atoms: _112  and  _113
REMARK   47  A    between atoms: _116  and  _118
REMARK   48  A    between atoms: _118  and  _119
REMARK   49  A    between atoms: _118  and  _121
REMARK   50  A    between atoms: _121  and  _122
REMARK   51  A    between atoms: _122  and  _157
REMARK   52  A    between atoms: _123  and  _125
REMARK   53  A    between atoms: _125  and  _126
REMARK   54  A    between atoms: _128  and  _130
REMARK   55  A    between atoms: _130  and  _131
REMARK   56  A    between atoms: _134  and  _136
REMARK   57  A    between atoms: _136  and  _137
REMARK   58  A    between atoms: _140  and  _142
REMARK   59  A    between atoms: _142  and  _143
REMARK   60  A    between atoms: _142  and  _145
REMARK   61  A    between atoms: _145  and  _146
REMARK   62  A    between atoms: _151  and  _153
REMARK   63  A    between atoms: _153  and  _154
REMARK   64  A    between atoms: _153  and  _156
REMARK   65  A    between atoms: _156  and  _157
REMARK   66  A    between atoms: _158  and  _160
REMARK   67  A    between atoms: _160  and  _161
REMARK   68  A    between atoms: _160  and  _163
REMARK   69  A    between atoms: _163  and  _164
REMARK   70  A    between atoms: _170  and  _172
REMARK   71  A    between atoms: _172  and  _173
REMARK   72  A    between atoms: _172  and  _175
REMARK   73  A    between atoms: _175  and  _176
REMARK   74  A    between atoms: _181  and  _182
REMARK   75  A    between atoms: _184  and  _186
REMARK   76  A    between atoms: _186  and  _187
REMARK   77  A    between atoms: _186  and  _189
REMARK   78  A    between atoms: _192  and  _194
REMARK   79  A    between atoms: _194  and  _195
REMARK   80  A    between atoms: _194  and  _197
REMARK   81  A    between atoms: _197  and  _198
REMARK   82  A    between atoms: _198  and  _199
REMARK   83  A    between atoms: _204  and  _206
REMARK   84  A    between atoms: _206  and  _207
REMARK   85  A    between atoms: _210  and  _212
REMARK   86  A    between atoms: _212  and  _213
REMARK   87  A    between atoms: _212  and  _215
REMARK   88  A    between atoms: _215  and  _216
REMARK   89  A    between atoms: _219  and  _221
REMARK   90  A    between atoms: _221  and  _222
REMARK   91  A    between atoms: _221  and  _224
REMARK   92  A    between atoms: _227  and  _229
REMARK   93  A    between atoms: _229  and  _230
REMARK   94  A    between atoms: _229  and  _232
REMARK   95  A    between atoms: _232  and  _233
REMARK   96  A    between atoms: _243  and  _245
REMARK   97  A    between atoms: _245  and  _246
REMARK   98  A    between atoms: _248  and  _250
REMARK   99  A    between atoms: _250  and  _251
REMARK  100  A    between atoms: _250  and  _253
REMARK  101  A    between atoms: _253  and  _254
REMARK  102  A    between atoms: _259  and  _260
REMARK  103  A    between atoms: _262  and  _264
REMARK  104  A    between atoms: _264  and  _265
REMARK  105  A    between atoms: _264  and  _267
REMARK  106  A    between atoms: _267  and  _268
REMARK  107  A    between atoms: _268  and  _269
REMARK  108  A    between atoms: _269  and  _270
REMARK  109  A    between atoms: _270  and  _271
REMARK  110  A    between atoms: _275  and  _277
REMARK  111  A    between atoms: _277  and  _278
REMARK  112  A    between atoms: _277  and  _280
REMARK  113  A    between atoms: _280  and  _281
REMARK  114  A    between atoms: _284  and  _286
REMARK  115  A    between atoms: _286  and  _287
REMARK  116  A    between atoms: _286  and  _289
REMARK  117  A    between atoms: _289  and  _290
REMARK  118  A    between atoms: _293  and  _295
REMARK  119  A    between atoms: _295  and  _296
REMARK  120  A    between atoms: _295  and  _298
REMARK  121  A    between atoms: _298  and  _299
REMARK  122  A    between atoms: _299  and  _300
REMARK  123  A    between atoms: _300  and  _301
REMARK  124  A    between atoms: _301  and  _302
REMARK  125  A    between atoms: _306  and  _308
REMARK  126  A    between atoms: _308  and  _309
REMARK  127  A    between atoms: _308  and  _311
REMARK  128  A    between atoms: _311  and  _312
REMARK  129  A    between atoms: _315  and  _317
REMARK  130  A    between atoms: _317  and  _318
REMARK  131  A    between atoms: _317  and  _320
REMARK  132  A    between atoms: _320  and  _321
REMARK  133  A    between atoms: _321  and  _322
REMARK  134  A    between atoms: _327  and  _329
REMARK  135  A    between atoms: _329  and  _330
REMARK  136  A    between atoms: _329  and  _332
REMARK  137  A    between atoms: _332  and  _333
REMARK  138  A    between atoms: _336  and  _338
REMARK  139  A    between atoms: _338  and  _339
REMARK  140  A    between atoms: _338  and  _341
REMARK  141  A    between atoms: _341  and  _342
REMARK  142  A    between atoms: _347  and  _348
REMARK  143  A    between atoms: _350  and  _352
REMARK  144  A    between atoms: _352  and  _353
REMARK  145  A    between atoms: _352  and  _355
REMARK  146  A    between atoms: _355  and  _356
REMARK  147  A    between atoms: _359  and  _361
REMARK  148  A    between atoms: _361  and  _362
REMARK  149  A    between atoms: _361  and  _364
REMARK  150  A    between atoms: _366  and  _368
REMARK  151  A    between atoms: _368  and  _369
REMARK  152  A    between atoms: _372  and  _374
REMARK  153  A    between atoms: _374  and  _375
REMARK  154  A    between atoms: _374  and  _377
REMARK  155  A    between atoms: _377  and  _378
REMARK  156  A    between atoms: _378  and  _379
REMARK  157  A    between atoms: _379  and  _380
REMARK  158  A    between atoms: _380  and  _381
REMARK  159  A    between atoms: _385  and  _387
REMARK  160  A    between atoms: _387  and  _388
REMARK  161  A    between atoms: _387  and  _390
REMARK  162  A    between atoms: _390  and  _391
REMARK  163  A    between atoms: _394  and  _396
REMARK  164  A    between atoms: _396  and  _397
REMARK  165  A    between atoms: _400  and  _402
REMARK  166  A    between atoms: _402  and  _403
REMARK  167  A    between atoms: _402  and  _405
REMARK  168  A    between atoms: _405  and  _406
REMARK  169  A    between atoms: _406  and  _520
REMARK  170  A    between atoms: _407  and  _409
REMARK  171  A    between atoms: _409  and  _410
REMARK  172  A    between atoms: _409  and  _412
REMARK  173  A    between atoms: _412  and  _413
REMARK  174  A    between atoms: _413  and  _414
REMARK  175  A    between atoms: _414  and  _415
REMARK  176  A    between atoms: _415  and  _416
REMARK  177  A    between atoms: _420  and  _422
REMARK  178  A    between atoms: _422  and  _423
REMARK  179  A    between atoms: _425  and  _427
REMARK  180  A    between atoms: _427  and  _428
REMARK  181  A    between atoms: _427  and  _430
REMARK  182  A    between atoms: _430  and  _431
REMARK  183  A    between atoms: _434  and  _436
REMARK  184  A    between atoms: _436  and  _437
REMARK  185  A    between atoms: _436  and  _439
REMARK  186  A    between atoms: _439  and  _440
REMARK  187  A    between atoms: _442  and  _444
REMARK  188  A    between atoms: _444  and  _445
REMARK  189  A    between atoms: _447  and  _449
REMARK  190  A    between atoms: _449  and  _450
REMARK  191  A    between atoms: _452  and  _454
REMARK  192  A    between atoms: _454  and  _455
REMARK  193  A    between atoms: _454  and  _457
REMARK  194  A    between atoms: _457  and  _458
REMARK  195  A    between atoms: _461  and  _463
REMARK  196  A    between atoms: _463  and  _464
REMARK  197  A    between atoms: _463  and  _466
REMARK  198  A    between atoms: _466  and  _467
REMARK  199  A    between atoms: _470  and  _472
REMARK  200  A    between atoms: _472  and  _473
REMARK  201  A    between atoms: _472  and  _475
REMARK  202  A    between atoms: _475  and  _476
REMARK  203  A    between atoms: _478  and  _480
REMARK  204  A    between atoms: _480  and  _481
REMARK  205  A    between atoms: _480  and  _483
REMARK  206  A    between atoms: _483  and  _484
REMARK  207  A    between atoms: _494  and  _496
REMARK  208  A    between atoms: _496  and  _497
REMARK  209  A    between atoms: _499  and  _501
REMARK  210  A    between atoms: _501  and  _502
REMARK  211  A    between atoms: _501  and  _504
REMARK  212  A    between atoms: _504  and  _505
REMARK  213  A    between atoms: _505  and  _506
REMARK  214  A    between atoms: _509  and  _511
REMARK  215  A    between atoms: _511  and  _512
REMARK  216  A    between atoms: _514  and  _516
REMARK  217  A    between atoms: _516  and  _517
REMARK  218  A    between atoms: _516  and  _519
REMARK  219  A    between atoms: _519  and  _520
REMARK  220  A    between atoms: _521  and  _523
REMARK  221  A    between atoms: _523  and  _524
REMARK  222  A    between atoms: _527  and  _529
REMARK  223  A    between atoms: _529  and  _530
REMARK  224  A    between atoms: _529  and  _532
REMARK  225  A    between atoms: _532  and  _533
REMARK  226  A    between atoms: _533  and  _534
REMARK  227  A    between atoms: _539  and  _541
REMARK  228  A    between atoms: _541  and  _542
REMARK  229  A    between atoms: _541  and  _544
REMARK  230  A    between atoms: _544  and  _545
REMARK  231  A    between atoms: _545  and  _546
REMARK  232  A    between atoms: _546  and  _547
REMARK  233  A    between atoms: _557  and  _558
REMARK  234  A    between atoms: _563  and  _565
REMARK  235  A    between atoms: _565  and  _566
REMARK  236  A    between atoms: _568  and  _570
REMARK  237  A    between atoms: _570  and  _571
REMARK  238  A    between atoms: _570  and  _573
REMARK  239  A    between atoms: _576  and  _578
REMARK  240  A    between atoms: _578  and  _579
REMARK  241  A    between atoms: _578  and  _581
REMARK  242  A    between atoms: _581  and  _582
REMARK  243  A    between atoms: _587  and  _588
REMARK  244  A    between atoms: _590  and  _592
REMARK  245  A    between atoms: _592  and  _593
REMARK  246  A    between atoms: _592  and  _595
REMARK  247  A    between atoms: _595  and  _596
REMARK                            x       y       z     vdW  Elec       q    Type
REMARK                         _______ _______ _______ _____ _____    ______ ____
ROOT
ATOM      1  O   HOH     1      42.244 -28.527  27.384  0.00  0.00    +0.000 OA
ENDROOT
TORSDOF 0
REMARK  Name = ../refined-set-2016/4y8x/4y8x_pocket.pdb
REMARK  247 active torsions:
REMARK  status: ('A' for Active; 'I' for Inactive)
REMARK    1  A    between atoms: _1  and  _5
REMARK    2  A    between atoms: _5  and  _6
REMARK    3  A    between atoms: _5  and  _8
REMARK    4  A    between atoms: _8  and  _9
REMARK    5  A    between atoms: _12  and  _14
REMARK    6  A    between atoms: _14  and  _15
REMARK    7  A    between atoms: _14  and  _17
REMARK    8  A    between atoms: _20  and  _22
REMARK    9  A    between atoms: _22  and  _23
REMARK   10  A    between atoms: _22  and  _25
REMARK   11  A    between atoms: _25  and  _26
REMARK   12  A    between atoms: _29  and  _31
REMARK   13  A    between atoms: _31  and  _32
REMARK   14  A    between atoms: _31  and  _34
REMARK   15  A    between atoms: _34  and  _35
REMARK   16  A    between atoms: _38  and  _40
REMARK   17  A    between atoms: _40  and  _41
REMARK   18  A    between atoms: _40  and  _43
REMARK   19  A    between atoms: _43  and  _44
REMARK   20  A    between atoms: _49  and  _51
REMARK   21  A    between atoms: _51  and  _52
REMARK   22  A    between atoms: _51  and  _54
REMARK   23  A    between atoms: _54  and  _55
REMARK   24  A    between atoms: _58  and  _60
REMARK   25  A    between atoms: _60  and  _61
REMARK   26  A    between atoms: _60  and  _63
REMARK   27  A    between atoms: _63  and  _64
REMARK   28  A    between atoms: _67  and  _69
REMARK   29  A    between atoms: _69  and  _70
REMARK   30  A    between atoms: _69  and  _72
REMARK   31  A    between atoms: _72  and  _73
REMARK   32  A    between atoms: _73  and  _74
REMARK   33  A    between atoms: _79  and  _81
REMARK   34  A    between atoms: _81  and  _82
REMARK   35  A    between atoms: _81  and  _84
REMARK   36  A    between atoms: _84  and  _85
REMARK   37  A    between atoms: _85  and  _86
REMARK   38  A    between atoms: _86  and  _87
REMARK   39  A    between atoms: _96  and  _98
REMARK   40  A    between atoms: _98  and  _99
REMARK   41  A    between atoms: _98  and  _101
REMARK   42  A    between atoms: _101  and  _102
REMARK   43  A    between atoms: _107  and  _109
REMARK   44  A    between atoms: _109  and  _110
REMARK   45  A    between atoms: _109  and  _112
REMARK   46  A    between atoms: _112  and  _113
REMARK   47  A    between atoms: _116  and  _118
REMARK   48  A    between atoms: _118  and  _119
REMARK   49  A    between atoms: _118  and  _121
REMARK   50  A    between atoms: _121  and  _122
REMARK   51  A    between atoms: _122  and  _157
REMARK   52  A    between atoms: _123  and  _125
REMARK   53  A    between atoms: _125  and  _126
REMARK   54  A    between atoms: _128  and  _130
REMARK   55  A    between atoms: _130  and  _131
REMARK   56  A    between atoms: _134  and  _136
REMARK   57  A    between atoms: _136  and  _137
REMARK   58  A    between atoms: _140  and  _142
REMARK   59  A    between atoms: _142  and  _143
REMARK   60  A    between atoms: _142  and  _145
REMARK   61  A    between atoms: _145  and  _146
REMARK   62  A    between atoms: _151  and  _153
REMARK   63  A    between atoms: _153  and  _154
REMARK   64  A    between atoms: _153  and  _156
REMARK   65  A    between atoms: _156  and  _157
REMARK   66  A    between atoms: _158  and  _160
REMARK   67  A    between atoms: _160  and  _161
REMARK   68  A    between atoms: _160  and  _163
REMARK   69  A    between atoms: _163  and  _164
REMARK   70  A    between atoms: _170  and  _172
REMARK   71  A    between atoms: _172  and  _173
REMARK   72  A    between atoms: _172  and  _175
REMARK   73  A    between atoms: _175  and  _176
REMARK   74  A    between atoms: _181  and  _182
REMARK   75  A    between atoms: _184  and  _186
REMARK   76  A    between atoms: _186  and  _187
REMARK   77  A    between atoms: _186  and  _189
REMARK   78  A    between atoms: _192  and  _194
REMARK   79  A    between atoms: _194  and  _195
REMARK   80  A    between atoms: _194  and  _197
REMARK   81  A    between atoms: _197  and  _198
REMARK   82  A    between atoms: _198  and  _199
REMARK   83  A    between atoms: _204  and  _206
REMARK   84  A    between atoms: _206  and  _207
REMARK   85  A    between atoms: _210  and  _212
REMARK   86  A    between atoms: _212  and  _213
REMARK   87  A    between atoms: _212  and  _215
REMARK   88  A    between atoms: _215  and  _216
REMARK   89  A    between atoms: _219  and  _221
REMARK   90  A    between atoms: _221  and  _222
REMARK   91  A    between atoms: _221  and  _224
REMARK   92  A    between atoms: _227  and  _229
REMARK   93  A    between atoms: _229  and  _230
REMARK   94  A    between atoms: _229  and  _232
REMARK   95  A    between atoms: _232  and  _233
REMARK   96  A    between atoms: _243  and  _245
REMARK   97  A    between atoms: _245  and  _246
REMARK   98  A    between atoms: _248  and  _250
REMARK   99  A    between atoms: _250  and  _251
REMARK  100  A    between atoms: _250  and  _253
REMARK  101  A    between atoms: _253  and  _254
REMARK  102  A    between atoms: _259  and  _260
REMARK  103  A    between atoms: _262  and  _264
REMARK  104  A    between atoms: _264  and  _265
REMARK  105  A    between atoms: _264  and  _267
REMARK  106  A    between atoms: _267  and  _268
REMARK  107  A    between atoms: _268  and  _269
REMARK  108  A    between atoms: _269  and  _270
REMARK  109  A    between atoms: _270  and  _271
REMARK  110  A    between atoms: _275  and  _277
REMARK  111  A    between atoms: _277  and  _278
REMARK  112  A    between atoms: _277  and  _280
REMARK  113  A    between atoms: _280  and  _281
REMARK  114  A    between atoms: _284  and  _286
REMARK  115  A    between atoms: _286  and  _287
REMARK  116  A    between atoms: _286  and  _289
REMARK  117  A    between atoms: _289  and  _290
REMARK  118  A    between atoms: _293  and  _295
REMARK  119  A    between atoms: _295  and  _296
REMARK  120  A    between atoms: _295  and  _298
REMARK  121  A    between atoms: _298  and  _299
REMARK  122  A    between atoms: _299  and  _300
REMARK  123  A    between atoms: _300  and  _301
REMARK  124  A    between atoms: _301  and  _302
REMARK  125  A    between atoms: _306  and  _308
REMARK  126  A    between atoms: _308  and  _309
REMARK  127  A    between atoms: _308  and  _311
REMARK  128  A    between atoms: _311  and  _312
REMARK  129  A    between atoms: _315  and  _317
REMARK  130  A    between atoms: _317  and  _318
REMARK  131  A    between atoms: _317  and  _320
REMARK  132  A    between atoms: _320  and  _321
REMARK  133  A    between atoms: _321  and  _322
REMARK  134  A    between atoms: _327  and  _329
REMARK  135  A    between atoms: _329  and  _330
REMARK  136  A    between atoms: _329  and  _332
REMARK  137  A    between atoms: _332  and  _333
REMARK  138  A    between atoms: _336  and  _338
REMARK  139  A    between atoms: _338  and  _339
REMARK  140  A    between atoms: _338  and  _341
REMARK  141  A    between atoms: _341  and  _342
REMARK  142  A    between atoms: _347  and  _348
REMARK  143  A    between atoms: _350  and  _352
REMARK  144  A    between atoms: _352  and  _353
REMARK  145  A    between atoms: _352  and  _355
REMARK  146  A    between atoms: _355  and  _356
REMARK  147  A    between atoms: _359  and  _361
REMARK  148  A    between atoms: _361  and  _362
REMARK  149  A    between atoms: _361  and  _364
REMARK  150  A    between atoms: _366  and  _368
REMARK  151  A    between atoms: _368  and  _369
REMARK  152  A    between atoms: _372  and  _374
REMARK  153  A    between atoms: _374  and  _375
REMARK  154  A    between atoms: _374  and  _377
REMARK  155  A    between atoms: _377  and  _378
REMARK  156  A    between atoms: _378  and  _379
REMARK  157  A    between atoms: _379  and  _380
REMARK  158  A    between atoms: _380  and  _381
REMARK  159  A    between atoms: _385  and  _387
REMARK  160  A    between atoms: _387  and  _388
REMARK  161  A    between atoms: _387  and  _390
REMARK  162  A    between atoms: _390  and  _391
REMARK  163  A    between atoms: _394  and  _396
REMARK  164  A    between atoms: _396  and  _397
REMARK  165  A    between atoms: _400  and  _402
REMARK  166  A    between atoms: _402  and  _403
REMARK  167  A    between atoms: _402  and  _405
REMARK  168  A    between atoms: _405  and  _406
REMARK  169  A    between atoms: _406  and  _520
REMARK  170  A    between atoms: _407  and  _409
REMARK  171  A    between atoms: _409  and  _410
REMARK  172  A    between atoms: _409  and  _412
REMARK  173  A    between atoms: _412  and  _413
REMARK  174  A    between atoms: _413  and  _414
REMARK  175  A    between atoms: _414  and  _415
REMARK  176  A    between atoms: _415  and  _416
REMARK  177  A    between atoms: _420  and  _422
REMARK  178  A    between atoms: _422  and  _423
REMARK  179  A    between atoms: _425  and  _427
REMARK  180  A    between atoms: _427  and  _428
REMARK  181  A    between atoms: _427  and  _430
REMARK  182  A    between atoms: _430  and  _431
REMARK  183  A    between atoms: _434  and  _436
REMARK  184  A    between atoms: _436  and  _437
REMARK  185  A    between atoms: _436  and  _439
REMARK  186  A    between atoms: _439  and  _440
REMARK  187  A    between atoms: _442  and  _444
REMARK  188  A    between atoms: _444  and  _445
REMARK  189  A    between atoms: _447  and  _449
REMARK  190  A    between atoms: _449  and  _450
REMARK  191  A    between atoms: _452  and  _454
REMARK  192  A    between atoms: _454  and  _455
REMARK  193  A    between atoms: _454  and  _457
REMARK  194  A    between atoms: _457  and  _458
REMARK  195  A    between atoms: _461  and  _463
REMARK  196  A    between atoms: _463  and  _464
REMARK  197  A    between atoms: _463  and  _466
REMARK  198  A    between atoms: _466  and  _467
REMARK  199  A    between atoms: _470  and  _472
REMARK  200  A    between atoms: _472  and  _473
REMARK  201  A    between atoms: _472  and  _475
REMARK  202  A    between atoms: _475  and  _476
REMARK  203  A    between atoms: _478  and  _480
REMARK  204  A    between atoms: _480  and  _481
REMARK  205  A    between atoms: _480  and  _483
REMARK  206  A    between atoms: _483  and  _484
REMARK  207  A    between atoms: _494  and  _496
REMARK  208  A    between atoms: _496  and  _497
REMARK  209  A    between atoms: _499  and  _501
REMARK  210  A    between atoms: _501  and  _502
REMARK  211  A    between atoms: _501  and  _504
REMARK  212  A    between atoms: _504  and  _505
REMARK  213  A    between atoms: _505  and  _506
REMARK  214  A    between atoms: _509  and  _511
REMARK  215  A    between atoms: _511  and  _512
REMARK  216  A    between atoms: _514  and  _516
REMARK  217  A    between atoms: _516  and  _517
REMARK  218  A    between atoms: _516  and  _519
REMARK  219  A    between atoms: _519  and  _520
REMARK  220  A    between atoms: _521  and  _523
REMARK  221  A    between atoms: _523  and  _524
REMARK  222  A    between atoms: _527  and  _529
REMARK  223  A    between atoms: _529  and  _530
REMARK  224  A    between atoms: _529  and  _532
REMARK  225  A    between atoms: _532  and  _533
REMARK  226  A    between atoms: _533  and  _534
REMARK  227  A    between atoms: _539  and  _541
REMARK  228  A    between atoms: _541  and  _542
REMARK  229  A    between atoms: _541  and  _544
REMARK  230  A    between atoms: _544  and  _545
REMARK  231  A    between atoms: _545  and  _546
REMARK  232  A    between atoms: _546  and  _547
REMARK  233  A    between atoms: _557  and  _558
REMARK  234  A    between atoms: _563  and  _565
REMARK  235  A    between atoms: _565  and  _566
REMARK  236  A    between atoms: _568  and  _570
REMARK  237  A    between atoms: _570  and  _571
REMARK  238  A    between atoms: _570  and  _573
REMARK  239  A    between atoms: _576  and  _578
REMARK  240  A    between atoms: _578  and  _579
REMARK  241  A    between atoms: _578  and  _581
REMARK  242  A    between atoms: _581  and  _582
REMARK  243  A    between atoms: _587  and  _588
REMARK  244  A    between atoms: _590  and  _592
REMARK  245  A    between atoms: _592  and  _593
REMARK  246  A    between atoms: _592  and  _595
REMARK  247  A    between atoms: _595  and  _596
REMARK                            x       y       z     vdW  Elec       q    Type
REMARK                         _______ _______ _______ _____ _____    ______ ____
ROOT
ATOM      1  O   HOH     1      40.726 -21.324  32.329  0.00  0.00    +0.000 OA
ENDROOT
TORSDOF 0
REMARK  Name = ../refined-set-2016/4y8x/4y8x_pocket.pdb
REMARK  247 active torsions:
REMARK  status: ('A' for Active; 'I' for Inactive)
REMARK    1  A    between atoms: _1  and  _5
REMARK    2  A    between atoms: _5  and  _6
REMARK    3  A    between atoms: _5  and  _8
REMARK    4  A    between atoms: _8  and  _9
REMARK    5  A    between atoms: _12  and  _14
REMARK    6  A    between atoms: _14  and  _15
REMARK    7  A    between atoms: _14  and  _17
REMARK    8  A    between atoms: _20  and  _22
REMARK    9  A    between atoms: _22  and  _23
REMARK   10  A    between atoms: _22  and  _25
REMARK   11  A    between atoms: _25  and  _26
REMARK   12  A    between atoms: _29  and  _31
REMARK   13  A    between atoms: _31  and  _32
REMARK   14  A    between atoms: _31  and  _34
REMARK   15  A    between atoms: _34  and  _35
REMARK   16  A    between atoms: _38  and  _40
REMARK   17  A    between atoms: _40  and  _41
REMARK   18  A    between atoms: _40  and  _43
REMARK   19  A    between atoms: _43  and  _44
REMARK   20  A    between atoms: _49  and  _51
REMARK   21  A    between atoms: _51  and  _52
REMARK   22  A    between atoms: _51  and  _54
REMARK   23  A    between atoms: _54  and  _55
REMARK   24  A    between atoms: _58  and  _60
REMARK   25  A    between atoms: _60  and  _61
REMARK   26  A    between atoms: _60  and  _63
REMARK   27  A    between atoms: _63  and  _64
REMARK   28  A    between atoms: _67  and  _69
REMARK   29  A    between atoms: _69  and  _70
REMARK   30  A    between atoms: _69  and  _72
REMARK   31  A    between atoms: _72  and  _73
REMARK   32  A    between atoms: _73  and  _74
REMARK   33  A    between atoms: _79  and  _81
REMARK   34  A    between atoms: _81  and  _82
REMARK   35  A    between atoms: _81  and  _84
REMARK   36  A    between atoms: _84  and  _85
REMARK   37  A    between atoms: _85  and  _86
REMARK   38  A    between atoms: _86  and  _87
REMARK   39  A    between atoms: _96  and  _98
REMARK   40  A    between atoms: _98  and  _99
REMARK   41  A    between atoms: _98  and  _101
REMARK   42  A    between atoms: _101  and  _102
REMARK   43  A    between atoms: _107  and  _109
REMARK   44  A    between atoms: _109  and  _110
REMARK   45  A    between atoms: _109  and  _112
REMARK   46  A    between atoms: _112  and  _113
REMARK   47  A    between atoms: _116  and  _118
REMARK   48  A    between atoms: _118  and  _119
REMARK   49  A    between atoms: _118  and  _121
REMARK   50  A    between atoms: _121  and  _122
REMARK   51  A    between atoms: _122  and  _157
REMARK   52  A    between atoms: _123  and  _125
REMARK   53  A    between atoms: _125  and  _126
REMARK   54  A    between atoms: _128  and  _130
REMARK   55  A    between atoms: _130  and  _131
REMARK   56  A    between atoms: _134  and  _136
REMARK   57  A    between atoms: _136  and  _137
REMARK   58  A    between atoms: _140  and  _142
REMARK   59  A    between atoms: _142  and  _143
REMARK   60  A    between atoms: _142  and  _145
REMARK   61  A    between atoms: _145  and  _146
REMARK   62  A    between atoms: _151  and  _153
REMARK   63  A    between atoms: _153  and  _154
REMARK   64  A    between atoms: _153  and  _156
REMARK   65  A    between atoms: _156  and  _157
REMARK   66  A    between atoms: _158  and  _160
REMARK   67  A    between atoms: _160  and  _161
REMARK   68  A    between atoms: _160  and  _163
REMARK   69  A    between atoms: _163  and  _164
REMARK   70  A    between atoms: _170  and  _172
REMARK   71  A    between atoms: _172  and  _173
REMARK   72  A    between atoms: _172  and  _175
REMARK   73  A    between atoms: _175  and  _176
REMARK   74  A    between atoms: _181  and  _182
REMARK   75  A    between atoms: _184  and  _186
REMARK   76  A    between atoms: _186  and  _187
REMARK   77  A    between atoms: _186  and  _189
REMARK   78  A    between atoms: _192  and  _194
REMARK   79  A    between atoms: _194  and  _195
REMARK   80  A    between atoms: _194  and  _197
REMARK   81  A    between atoms: _197  and  _198
REMARK   82  A    between atoms: _198  and  _199
REMARK   83  A    between atoms: _204  and  _206
REMARK   84  A    between atoms: _206  and  _207
REMARK   85  A    between atoms: _210  and  _212
REMARK   86  A    between atoms: _212  and  _213
REMARK   87  A    between atoms: _212  and  _215
REMARK   88  A    between atoms: _215  and  _216
REMARK   89  A    between atoms: _219  and  _221
REMARK   90  A    between atoms: _221  and  _222
REMARK   91  A    between atoms: _221  and  _224
REMARK   92  A    between atoms: _227  and  _229
REMARK   93  A    between atoms: _229  and  _230
REMARK   94  A    between atoms: _229  and  _232
REMARK   95  A    between atoms: _232  and  _233
REMARK   96  A    between atoms: _243  and  _245
REMARK   97  A    between atoms: _245  and  _246
REMARK   98  A    between atoms: _248  and  _250
REMARK   99  A    between atoms: _250  and  _251
REMARK  100  A    between atoms: _250  and  _253
REMARK  101  A    between atoms: _253  and  _254
REMARK  102  A    between atoms: _259  and  _260
REMARK  103  A    between atoms: _262  and  _264
REMARK  104  A    between atoms: _264  and  _265
REMARK  105  A    between atoms: _264  and  _267
REMARK  106  A    between atoms: _267  and  _268
REMARK  107  A    between atoms: _268  and  _269
REMARK  108  A    between atoms: _269  and  _270
REMARK  109  A    between atoms: _270  and  _271
REMARK  110  A    between atoms: _275  and  _277
REMARK  111  A    between atoms: _277  and  _278
REMARK  112  A    between atoms: _277  and  _280
REMARK  113  A    between atoms: _280  and  _281
REMARK  114  A    between atoms: _284  and  _286
REMARK  115  A    between atoms: _286  and  _287
REMARK  116  A    between atoms: _286  and  _289
REMARK  117  A    between atoms: _289  and  _290
REMARK  118  A    between atoms: _293  and  _295
REMARK  119  A    between atoms: _295  and  _296
REMARK  120  A    between atoms: _295  and  _298
REMARK  121  A    between atoms: _298  and  _299
REMARK  122  A    between atoms: _299  and  _300
REMARK  123  A    between atoms: _300  and  _301
REMARK  124  A    between atoms: _301  and  _302
REMARK  125  A    between atoms: _306  and  _308
REMARK  126  A    between atoms: _308  and  _309
REMARK  127  A    between atoms: _308  and  _311
REMARK  128  A    between atoms: _311  and  _312
REMARK  129  A    between atoms: _315  and  _317
REMARK  130  A    between atoms: _317  and  _318
REMARK  131  A    between atoms: _317  and  _320
REMARK  132  A    between atoms: _320  and  _321
REMARK  133  A    between atoms: _321  and  _322
REMARK  134  A    between atoms: _327  and  _329
REMARK  135  A    between atoms: _329  and  _330
REMARK  136  A    between atoms: _329  and  _332
REMARK  137  A    between atoms: _332  and  _333
REMARK  138  A    between atoms: _336  and  _338
REMARK  139  A    between atoms: _338  and  _339
REMARK  140  A    between atoms: _338  and  _341
REMARK  141  A    between atoms: _341  and  _342
REMARK  142  A    between atoms: _347  and  _348
REMARK  143  A    between atoms: _350  and  _352
REMARK  144  A    between atoms: _352  and  _353
REMARK  145  A    between atoms: _352  and  _355
REMARK  146  A    between atoms: _355  and  _356
REMARK  147  A    between atoms: _359  and  _361
REMARK  148  A    between atoms: _361  and  _362
REMARK  149  A    between atoms: _361  and  _364
REMARK  150  A    between atoms: _366  and  _368
REMARK  151  A    between atoms: _368  and  _369
REMARK  152  A    between atoms: _372  and  _374
REMARK  153  A    between atoms: _374  and  _375
REMARK  154  A    between atoms: _374  and  _377
REMARK  155  A    between atoms: _377  and  _378
REMARK  156  A    between atoms: _378  and  _379
REMARK  157  A    between atoms: _379  and  _380
REMARK  158  A    between atoms: _380  and  _381
REMARK  159  A    between atoms: _385  and  _387
REMARK  160  A    between atoms: _387  and  _388
REMARK  161  A    between atoms: _387  and  _390
REMARK  162  A    between atoms: _390  and  _391
REMARK  163  A    between atoms: _394  and  _396
REMARK  164  A    between atoms: _396  and  _397
REMARK  165  A    between atoms: _400  and  _402
REMARK  166  A    between atoms: _402  and  _403
REMARK  167  A    between atoms: _402  and  _405
REMARK  168  A    between atoms: _405  and  _406
REMARK  169  A    between atoms: _406  and  _520
REMARK  170  A    between atoms: _407  and  _409
REMARK  171  A    between atoms: _409  and  _410
REMARK  172  A    between atoms: _409  and  _412
REMARK  173  A    between atoms: _412  and  _413
REMARK  174  A    between atoms: _413  and  _414
REMARK  175  A    between atoms: _414  and  _415
REMARK  176  A    between atoms: _415  and  _416
REMARK  177  A    between atoms: _420  and  _422
REMARK  178  A    between atoms: _422  and  _423
REMARK  179  A    between atoms: _425  and  _427
REMARK  180  A    between atoms: _427  and  _428
REMARK  181  A    between atoms: _427  and  _430
REMARK  182  A    between atoms: _430  and  _431
REMARK  183  A    between atoms: _434  and  _436
REMARK  184  A    between atoms: _436  and  _437
REMARK  185  A    between atoms: _436  and  _439
REMARK  186  A    between atoms: _439  and  _440
REMARK  187  A    between atoms: _442  and  _444
REMARK  188  A    between atoms: _444  and  _445
REMARK  189  A    between atoms: _447  and  _449
REMARK  190  A    between atoms: _449  and  _450
REMARK  191  A    between atoms: _452  and  _454
REMARK  192  A    between atoms: _454  and  _455
REMARK  193  A    between atoms: _454  and  _457
REMARK  194  A    between atoms: _457  and  _458
REMARK  195  A    between atoms: _461  and  _463
REMARK  196  A    between atoms: _463  and  _464
REMARK  197  A    between atoms: _463  and  _466
REMARK  198  A    between atoms: _466  and  _467
REMARK  199  A    between atoms: _470  and  _472
REMARK  200  A    between atoms: _472  and  _473
REMARK  201  A    between atoms: _472  and  _475
REMARK  202  A    between atoms: _475  and  _476
REMARK  203  A    between atoms: _478  and  _480
REMARK  204  A    between atoms: _480  and  _481
REMARK  205  A    between atoms: _480  and  _483
REMARK  206  A    between atoms: _483  and  _484
REMARK  207  A    between atoms: _494  and  _496
REMARK  208  A    between atoms: _496  and  _497
REMARK  209  A    between atoms: _499  and  _501
REMARK  210  A    between atoms: _501  and  _502
REMARK  211  A    between atoms: _501  and  _504
REMARK  212  A    between atoms: _504  and  _505
REMARK  213  A    between atoms: _505  and  _506
REMARK  214  A    between atoms: _509  and  _511
REMARK  215  A    between atoms: _511  and  _512
REMARK  216  A    between atoms: _514  and  _516
REMARK  217  A    between atoms: _516  and  _517
REMARK  218  A    between atoms: _516  and  _519
REMARK  219  A    between atoms: _519  and  _520
REMARK  220  A    between atoms: _521  and  _523
REMARK  221  A    between atoms: _523  and  _524
REMARK  222  A    between atoms: _527  and  _529
REMARK  223  A    between atoms: _529  and  _530
REMARK  224  A    between atoms: _529  and  _532
REMARK  225  A    between atoms: _532  and  _533
REMARK  226  A    between atoms: _533  and  _534
REMARK  227  A    between atoms: _539  and  _541
REMARK  228  A    between atoms: _541  and  _542
REMARK  229  A    between atoms: _541  and  _544
REMARK  230  A    between atoms: _544  and  _545
REMARK  231  A    between atoms: _545  and  _546
REMARK  232  A    between atoms: _546  and  _547
REMARK  233  A    between atoms: _557  and  _558
REMARK  234  A    between atoms: _563  and  _565
REMARK  235  A    between atoms: _565  and  _566
REMARK  236  A    between atoms: _568  and  _570
REMARK  237  A    between atoms: _570  and  _571
REMARK  238  A    between atoms: _570  and  _573
REMARK  239  A    between atoms: _576  and  _578
REMARK  240  A    between atoms: _578  and  _579
REMARK  241  A    between atoms: _578  and  _581
REMARK  242  A    between atoms: _581  and  _582
REMARK  243  A    between atoms: _587  and  _588
REMARK  244  A    between atoms: _590  and  _592
REMARK  245  A    between atoms: _592  and  _593
REMARK  246  A    between atoms: _592  and  _595
REMARK  247  A    between atoms: _595  and  _596
REMARK                            x       y       z     vdW  Elec       q    Type
REMARK                         _______ _______ _______ _____ _____    ______ ____
ROOT
ATOM      1  O   HOH     1      41.014 -17.920  37.601  0.00  0.00    +0.000 OA
ENDROOT
TORSDOF 0
REMARK  Name = ../refined-set-2016/4y8x/4y8x_pocket.pdb
REMARK  247 active torsions:
REMARK  status: ('A' for Active; 'I' for Inactive)
REMARK    1  A    between atoms: _1  and  _5
REMARK    2  A    between atoms: _5  and  _6
REMARK    3  A    between atoms: _5  and  _8
REMARK    4  A    between atoms: _8  and  _9
REMARK    5  A    between atoms: _12  and  _14
REMARK    6  A    between atoms: _14  and  _15
REMARK    7  A    between atoms: _14  and  _17
REMARK    8  A    between atoms: _20  and  _22
REMARK    9  A    between atoms: _22  and  _23
REMARK   10  A    between atoms: _22  and  _25
REMARK   11  A    between atoms: _25  and  _26
REMARK   12  A    between atoms: _29  and  _31
REMARK   13  A    between atoms: _31  and  _32
REMARK   14  A    between atoms: _31  and  _34
REMARK   15  A    between atoms: _34  and  _35
REMARK   16  A    between atoms: _38  and  _40
REMARK   17  A    between atoms: _40  and  _41
REMARK   18  A    between atoms: _40  and  _43
REMARK   19  A    between atoms: _43  and  _44
REMARK   20  A    between atoms: _49  and  _51
REMARK   21  A    between atoms: _51  and  _52
REMARK   22  A    between atoms: _51  and  _54
REMARK   23  A    between atoms: _54  and  _55
REMARK   24  A    between atoms: _58  and  _60
REMARK   25  A    between atoms: _60  and  _61
REMARK   26  A    between atoms: _60  and  _63
REMARK   27  A    between atoms: _63  and  _64
REMARK   28  A    between atoms: _67  and  _69
REMARK   29  A    between atoms: _69  and  _70
REMARK   30  A    between atoms: _69  and  _72
REMARK   31  A    between atoms: _72  and  _73
REMARK   32  A    between atoms: _73  and  _74
REMARK   33  A    between atoms: _79  and  _81
REMARK   34  A    between atoms: _81  and  _82
REMARK   35  A    between atoms: _81  and  _84
REMARK   36  A    between atoms: _84  and  _85
REMARK   37  A    between atoms: _85  and  _86
REMARK   38  A    between atoms: _86  and  _87
REMARK   39  A    between atoms: _96  and  _98
REMARK   40  A    between atoms: _98  and  _99
REMARK   41  A    between atoms: _98  and  _101
REMARK   42  A    between atoms: _101  and  _102
REMARK   43  A    between atoms: _107  and  _109
REMARK   44  A    between atoms: _109  and  _110
REMARK   45  A    between atoms: _109  and  _112
REMARK   46  A    between atoms: _112  and  _113
REMARK   47  A    between atoms: _116  and  _118
REMARK   48  A    between atoms: _118  and  _119
REMARK   49  A    between atoms: _118  and  _121
REMARK   50  A    between atoms: _121  and  _122
REMARK   51  A    between atoms: _122  and  _157
REMARK   52  A    between atoms: _123  and  _125
REMARK   53  A    between atoms: _125  and  _126
REMARK   54  A    between atoms: _128  and  _130
REMARK   55  A    between atoms: _130  and  _131
REMARK   56  A    between atoms: _134  and  _136
REMARK   57  A    between atoms: _136  and  _137
REMARK   58  A    between atoms: _140  and  _142
REMARK   59  A    between atoms: _142  and  _143
REMARK   60  A    between atoms: _142  and  _145
REMARK   61  A    between atoms: _145  and  _146
REMARK   62  A    between atoms: _151  and  _153
REMARK   63  A    between atoms: _153  and  _154
REMARK   64  A    between atoms: _153  and  _156
REMARK   65  A    between atoms: _156  and  _157
REMARK   66  A    between atoms: _158  and  _160
REMARK   67  A    between atoms: _160  and  _161
REMARK   68  A    between atoms: _160  and  _163
REMARK   69  A    between atoms: _163  and  _164
REMARK   70  A    between atoms: _170  and  _172
REMARK   71  A    between atoms: _172  and  _173
REMARK   72  A    between atoms: _172  and  _175
REMARK   73  A    between atoms: _175  and  _176
REMARK   74  A    between atoms: _181  and  _182
REMARK   75  A    between atoms: _184  and  _186
REMARK   76  A    between atoms: _186  and  _187
REMARK   77  A    between atoms: _186  and  _189
REMARK   78  A    between atoms: _192  and  _194
REMARK   79  A    between atoms: _194  and  _195
REMARK   80  A    between atoms: _194  and  _197
REMARK   81  A    between atoms: _197  and  _198
REMARK   82  A    between atoms: _198  and  _199
REMARK   83  A    between atoms: _204  and  _206
REMARK   84  A    between atoms: _206  and  _207
REMARK   85  A    between atoms: _210  and  _212
REMARK   86  A    between atoms: _212  and  _213
REMARK   87  A    between atoms: _212  and  _215
REMARK   88  A    between atoms: _215  and  _216
REMARK   89  A    between atoms: _219  and  _221
REMARK   90  A    between atoms: _221  and  _222
REMARK   91  A    between atoms: _221  and  _224
REMARK   92  A    between atoms: _227  and  _229
REMARK   93  A    between atoms: _229  and  _230
REMARK   94  A    between atoms: _229  and  _232
REMARK   95  A    between atoms: _232  and  _233
REMARK   96  A    between atoms: _243  and  _245
REMARK   97  A    between atoms: _245  and  _246
REMARK   98  A    between atoms: _248  and  _250
REMARK   99  A    between atoms: _250  and  _251
REMARK  100  A    between atoms: _250  and  _253
REMARK  101  A    between atoms: _253  and  _254
REMARK  102  A    between atoms: _259  and  _260
REMARK  103  A    between atoms: _262  and  _264
REMARK  104  A    between atoms: _264  and  _265
REMARK  105  A    between atoms: _264  and  _267
REMARK  106  A    between atoms: _267  and  _268
REMARK  107  A    between atoms: _268  and  _269
REMARK  108  A    between atoms: _269  and  _270
REMARK  109  A    between atoms: _270  and  _271
REMARK  110  A    between atoms: _275  and  _277
REMARK  111  A    between atoms: _277  and  _278
REMARK  112  A    between atoms: _277  and  _280
REMARK  113  A    between atoms: _280  and  _281
REMARK  114  A    between atoms: _284  and  _286
REMARK  115  A    between atoms: _286  and  _287
REMARK  116  A    between atoms: _286  and  _289
REMARK  117  A    between atoms: _289  and  _290
REMARK  118  A    between atoms: _293  and  _295
REMARK  119  A    between atoms: _295  and  _296
REMARK  120  A    between atoms: _295  and  _298
REMARK  121  A    between atoms: _298  and  _299
REMARK  122  A    between atoms: _299  and  _300
REMARK  123  A    between atoms: _300  and  _301
REMARK  124  A    between atoms: _301  and  _302
REMARK  125  A    between atoms: _306  and  _308
REMARK  126  A    between atoms: _308  and  _309
REMARK  127  A    between atoms: _308  and  _311
REMARK  128  A    between atoms: _311  and  _312
REMARK  129  A    between atoms: _315  and  _317
REMARK  130  A    between atoms: _317  and  _318
REMARK  131  A    between atoms: _317  and  _320
REMARK  132  A    between atoms: _320  and  _321
REMARK  133  A    between atoms: _321  and  _322
REMARK  134  A    between atoms: _327  and  _329
REMARK  135  A    between atoms: _329  and  _330
REMARK  136  A    between atoms: _329  and  _332
REMARK  137  A    between atoms: _332  and  _333
REMARK  138  A    between atoms: _336  and  _338
REMARK  139  A    between atoms: _338  and  _339
REMARK  140  A    between atoms: _338  and  _341
REMARK  141  A    between atoms: _341  and  _342
REMARK  142  A    between atoms: _347  and  _348
REMARK  143  A    between atoms: _350  and  _352
REMARK  144  A    between atoms: _352  and  _353
REMARK  145  A    between atoms: _352  and  _355
REMARK  146  A    between atoms: _355  and  _356
REMARK  147  A    between atoms: _359  and  _361
REMARK  148  A    between atoms: _361  and  _362
REMARK  149  A    between atoms: _361  and  _364
REMARK  150  A    between atoms: _366  and  _368
REMARK  151  A    between atoms: _368  and  _369
REMARK  152  A    between atoms: _372  and  _374
REMARK  153  A    between atoms: _374  and  _375
REMARK  154  A    between atoms: _374  and  _377
REMARK  155  A    between atoms: _377  and  _378
REMARK  156  A    between atoms: _378  and  _379
REMARK  157  A    between atoms: _379  and  _380
REMARK  158  A    between atoms: _380  and  _381
REMARK  159  A    between atoms: _385  and  _387
REMARK  160  A    between atoms: _387  and  _388
REMARK  161  A    between atoms: _387  and  _390
REMARK  162  A    between atoms: _390  and  _391
REMARK  163  A    between atoms: _394  and  _396
REMARK  164  A    between atoms: _396  and  _397
REMARK  165  A    between atoms: _400  and  _402
REMARK  166  A    between atoms: _402  and  _403
REMARK  167  A    between atoms: _402  and  _405
REMARK  168  A    between atoms: _405  and  _406
REMARK  169  A    between atoms: _406  and  _520
REMARK  170  A    between atoms: _407  and  _409
REMARK  171  A    between atoms: _409  and  _410
REMARK  172  A    between atoms: _409  and  _412
REMARK  173  A    between atoms: _412  and  _413
REMARK  174  A    between atoms: _413  and  _414
REMARK  175  A    between atoms: _414  and  _415
REMARK  176  A    between atoms: _415  and  _416
REMARK  177  A    between atoms: _420  and  _422
REMARK  178  A    between atoms: _422  and  _423
REMARK  179  A    between atoms: _425  and  _427
REMARK  180  A    between atoms: _427  and  _428
REMARK  181  A    between atoms: _427  and  _430
REMARK  182  A    between atoms: _430  and  _431
REMARK  183  A    between atoms: _434  and  _436
REMARK  184  A    between atoms: _436  and  _437
REMARK  185  A    between atoms: _436  and  _439
REMARK  186  A    between atoms: _439  and  _440
REMARK  187  A    between atoms: _442  and  _444
REMARK  188  A    between atoms: _444  and  _445
REMARK  189  A    between atoms: _447  and  _449
REMARK  190  A    between atoms: _449  and  _450
REMARK  191  A    between atoms: _452  and  _454
REMARK  192  A    between atoms: _454  and  _455
REMARK  193  A    between atoms: _454  and  _457
REMARK  194  A    between atoms: _457  and  _458
REMARK  195  A    between atoms: _461  and  _463
REMARK  196  A    between atoms: _463  and  _464
REMARK  197  A    between atoms: _463  and  _466
REMARK  198  A    between atoms: _466  and  _467
REMARK  199  A    between atoms: _470  and  _472
REMARK  200  A    between atoms: _472  and  _473
REMARK  201  A    between atoms: _472  and  _475
REMARK  202  A    between atoms: _475  and  _476
REMARK  203  A    between atoms: _478  and  _480
REMARK  204  A    between atoms: _480  and  _481
REMARK  205  A    between atoms: _480  and  _483
REMARK  206  A    between atoms: _483  and  _484
REMARK  207  A    between atoms: _494  and  _496
REMARK  208  A    between atoms: _496  and  _497
REMARK  209  A    between atoms: _499  and  _501
REMARK  210  A    between atoms: _501  and  _502
REMARK  211  A    between atoms: _501  and  _504
REMARK  212  A    between atoms: _504  and  _505
REMARK  213  A    between atoms: _505  and  _506
REMARK  214  A    between atoms: _509  and  _511
REMARK  215  A    between atoms: _511  and  _512
REMARK  216  A    between atoms: _514  and  _516
REMARK  217  A    between atoms: _516  and  _517
REMARK  218  A    between atoms: _516  and  _519
REMARK  219  A    between atoms: _519  and  _520
REMARK  220  A    between atoms: _521  and  _523
REMARK  221  A    between atoms: _523  and  _524
REMARK  222  A    between atoms: _527  and  _529
REMARK  223  A    between atoms: _529  and  _530
REMARK  224  A    between atoms: _529  and  _532
REMARK  225  A    between atoms: _532  and  _533
REMARK  226  A    between atoms: _533  and  _534
REMARK  227  A    between atoms: _539  and  _541
REMARK  228  A    between atoms: _541  and  _542
REMARK  229  A    between atoms: _541  and  _544
REMARK  230  A    between atoms: _544  and  _545
REMARK  231  A    between atoms: _545  and  _546
REMARK  232  A    between atoms: _546  and  _547
REMARK  233  A    between atoms: _557  and  _558
REMARK  234  A    between atoms: _563  and  _565
REMARK  235  A    between atoms: _565  and  _566
REMARK  236  A    between atoms: _568  and  _570
REMARK  237  A    between atoms: _570  and  _571
REMARK  238  A    between atoms: _570  and  _573
REMARK  239  A    between atoms: _576  and  _578
REMARK  240  A    between atoms: _578  and  _579
REMARK  241  A    between atoms: _578  and  _581
REMARK  242  A    between atoms: _581  and  _582
REMARK  243  A    between atoms: _587  and  _588
REMARK  244  A    between atoms: _590  and  _592
REMARK  245  A    between atoms: _592  and  _593
REMARK  246  A    between atoms: _592  and  _595
REMARK  247  A    between atoms: _595  and  _596
REMARK                            x       y       z     vdW  Elec       q    Type
REMARK                         _______ _______ _______ _____ _____    ______ ____
ROOT
ATOM      1  O   HOH     1      41.057 -29.274  29.959  0.00  0.00    +0.000 OA
ENDROOT
TORSDOF 0
REMARK  Name = ../refined-set-2016/4y8x/4y8x_pocket.pdb
REMARK  247 active torsions:
REMARK  status: ('A' for Active; 'I' for Inactive)
REMARK    1  A    between atoms: _1  and  _5
REMARK    2  A    between atoms: _5  and  _6
REMARK    3  A    between atoms: _5  and  _8
REMARK    4  A    between atoms: _8  and  _9
REMARK    5  A    between atoms: _12  and  _14
REMARK    6  A    between atoms: _14  and  _15
REMARK    7  A    between atoms: _14  and  _17
REMARK    8  A    between atoms: _20  and  _22
REMARK    9  A    between atoms: _22  and  _23
REMARK   10  A    between atoms: _22  and  _25
REMARK   11  A    between atoms: _25  and  _26
REMARK   12  A    between atoms: _29  and  _31
REMARK   13  A    between atoms: _31  and  _32
REMARK   14  A    between atoms: _31  and  _34
REMARK   15  A    between atoms: _34  and  _35
REMARK   16  A    between atoms: _38  and  _40
REMARK   17  A    between atoms: _40  and  _41
REMARK   18  A    between atoms: _40  and  _43
REMARK   19  A    between atoms: _43  and  _44
REMARK   20  A    between atoms: _49  and  _51
REMARK   21  A    between atoms: _51  and  _52
REMARK   22  A    between atoms: _51  and  _54
REMARK   23  A    between atoms: _54  and  _55
REMARK   24  A    between atoms: _58  and  _60
REMARK   25  A    between atoms: _60  and  _61
REMARK   26  A    between atoms: _60  and  _63
REMARK   27  A    between atoms: _63  and  _64
REMARK   28  A    between atoms: _67  and  _69
REMARK   29  A    between atoms: _69  and  _70
REMARK   30  A    between atoms: _69  and  _72
REMARK   31  A    between atoms: _72  and  _73
REMARK   32  A    between atoms: _73  and  _74
REMARK   33  A    between atoms: _79  and  _81
REMARK   34  A    between atoms: _81  and  _82
REMARK   35  A    between atoms: _81  and  _84
REMARK   36  A    between atoms: _84  and  _85
REMARK   37  A    between atoms: _85  and  _86
REMARK   38  A    between atoms: _86  and  _87
REMARK   39  A    between atoms: _96  and  _98
REMARK   40  A    between atoms: _98  and  _99
REMARK   41  A    between atoms: _98  and  _101
REMARK   42  A    between atoms: _101  and  _102
REMARK   43  A    between atoms: _107  and  _109
REMARK   44  A    between atoms: _109  and  _110
REMARK   45  A    between atoms: _109  and  _112
REMARK   46  A    between atoms: _112  and  _113
REMARK   47  A    between atoms: _116  and  _118
REMARK   48  A    between atoms: _118  and  _119
REMARK   49  A    between atoms: _118  and  _121
REMARK   50  A    between atoms: _121  and  _122
REMARK   51  A    between atoms: _122  and  _157
REMARK   52  A    between atoms: _123  and  _125
REMARK   53  A    between atoms: _125  and  _126
REMARK   54  A    between atoms: _128  and  _130
REMARK   55  A    between atoms: _130  and  _131
REMARK   56  A    between atoms: _134  and  _136
REMARK   57  A    between atoms: _136  and  _137
REMARK   58  A    between atoms: _140  and  _142
REMARK   59  A    between atoms: _142  and  _143
REMARK   60  A    between atoms: _142  and  _145
REMARK   61  A    between atoms: _145  and  _146
REMARK   62  A    between atoms: _151  and  _153
REMARK   63  A    between atoms: _153  and  _154
REMARK   64  A    between atoms: _153  and  _156
REMARK   65  A    between atoms: _156  and  _157
REMARK   66  A    between atoms: _158  and  _160
REMARK   67  A    between atoms: _160  and  _161
REMARK   68  A    between atoms: _160  and  _163
REMARK   69  A    between atoms: _163  and  _164
REMARK   70  A    between atoms: _170  and  _172
REMARK   71  A    between atoms: _172  and  _173
REMARK   72  A    between atoms: _172  and  _175
REMARK   73  A    between atoms: _175  and  _176
REMARK   74  A    between atoms: _181  and  _182
REMARK   75  A    between atoms: _184  and  _186
REMARK   76  A    between atoms: _186  and  _187
REMARK   77  A    between atoms: _186  and  _189
REMARK   78  A    between atoms: _192  and  _194
REMARK   79  A    between atoms: _194  and  _195
REMARK   80  A    between atoms: _194  and  _197
REMARK   81  A    between atoms: _197  and  _198
REMARK   82  A    between atoms: _198  and  _199
REMARK   83  A    between atoms: _204  and  _206
REMARK   84  A    between atoms: _206  and  _207
REMARK   85  A    between atoms: _210  and  _212
REMARK   86  A    between atoms: _212  and  _213
REMARK   87  A    between atoms: _212  and  _215
REMARK   88  A    between atoms: _215  and  _216
REMARK   89  A    between atoms: _219  and  _221
REMARK   90  A    between atoms: _221  and  _222
REMARK   91  A    between atoms: _221  and  _224
REMARK   92  A    between atoms: _227  and  _229
REMARK   93  A    between atoms: _229  and  _230
REMARK   94  A    between atoms: _229  and  _232
REMARK   95  A    between atoms: _232  and  _233
REMARK   96  A    between atoms: _243  and  _245
REMARK   97  A    between atoms: _245  and  _246
REMARK   98  A    between atoms: _248  and  _250
REMARK   99  A    between atoms: _250  and  _251
REMARK  100  A    between atoms: _250  and  _253
REMARK  101  A    between atoms: _253  and  _254
REMARK  102  A    between atoms: _259  and  _260
REMARK  103  A    between atoms: _262  and  _264
REMARK  104  A    between atoms: _264  and  _265
REMARK  105  A    between atoms: _264  and  _267
REMARK  106  A    between atoms: _267  and  _268
REMARK  107  A    between atoms: _268  and  _269
REMARK  108  A    between atoms: _269  and  _270
REMARK  109  A    between atoms: _270  and  _271
REMARK  110  A    between atoms: _275  and  _277
REMARK  111  A    between atoms: _277  and  _278
REMARK  112  A    between atoms: _277  and  _280
REMARK  113  A    between atoms: _280  and  _281
REMARK  114  A    between atoms: _284  and  _286
REMARK  115  A    between atoms: _286  and  _287
REMARK  116  A    between atoms: _286  and  _289
REMARK  117  A    between atoms: _289  and  _290
REMARK  118  A    between atoms: _293  and  _295
REMARK  119  A    between atoms: _295  and  _296
REMARK  120  A    between atoms: _295  and  _298
REMARK  121  A    between atoms: _298  and  _299
REMARK  122  A    between atoms: _299  and  _300
REMARK  123  A    between atoms: _300  and  _301
REMARK  124  A    between atoms: _301  and  _302
REMARK  125  A    between atoms: _306  and  _308
REMARK  126  A    between atoms: _308  and  _309
REMARK  127  A    between atoms: _308  and  _311
REMARK  128  A    between atoms: _311  and  _312
REMARK  129  A    between atoms: _315  and  _317
REMARK  130  A    between atoms: _317  and  _318
REMARK  131  A    between atoms: _317  and  _320
REMARK  132  A    between atoms: _320  and  _321
REMARK  133  A    between atoms: _321  and  _322
REMARK  134  A    between atoms: _327  and  _329
REMARK  135  A    between atoms: _329  and  _330
REMARK  136  A    between atoms: _329  and  _332
REMARK  137  A    between atoms: _332  and  _333
REMARK  138  A    between atoms: _336  and  _338
REMARK  139  A    between atoms: _338  and  _339
REMARK  140  A    between atoms: _338  and  _341
REMARK  141  A    between atoms: _341  and  _342
REMARK  142  A    between atoms: _347  and  _348
REMARK  143  A    between atoms: _350  and  _352
REMARK  144  A    between atoms: _352  and  _353
REMARK  145  A    between atoms: _352  and  _355
REMARK  146  A    between atoms: _355  and  _356
REMARK  147  A    between atoms: _359  and  _361
REMARK  148  A    between atoms: _361  and  _362
REMARK  149  A    between atoms: _361  and  _364
REMARK  150  A    between atoms: _366  and  _368
REMARK  151  A    between atoms: _368  and  _369
REMARK  152  A    between atoms: _372  and  _374
REMARK  153  A    between atoms: _374  and  _375
REMARK  154  A    between atoms: _374  and  _377
REMARK  155  A    between atoms: _377  and  _378
REMARK  156  A    between atoms: _378  and  _379
REMARK  157  A    between atoms: _379  and  _380
REMARK  158  A    between atoms: _380  and  _381
REMARK  159  A    between atoms: _385  and  _387
REMARK  160  A    between atoms: _387  and  _388
REMARK  161  A    between atoms: _387  and  _390
REMARK  162  A    between atoms: _390  and  _391
REMARK  163  A    between atoms: _394  and  _396
REMARK  164  A    between atoms: _396  and  _397
REMARK  165  A    between atoms: _400  and  _402
REMARK  166  A    between atoms: _402  and  _403
REMARK  167  A    between atoms: _402  and  _405
REMARK  168  A    between atoms: _405  and  _406
REMARK  169  A    between atoms: _406  and  _520
REMARK  170  A    between atoms: _407  and  _409
REMARK  171  A    between atoms: _409  and  _410
REMARK  172  A    between atoms: _409  and  _412
REMARK  173  A    between atoms: _412  and  _413
REMARK  174  A    between atoms: _413  and  _414
REMARK  175  A    between atoms: _414  and  _415
REMARK  176  A    between atoms: _415  and  _416
REMARK  177  A    between atoms: _420  and  _422
REMARK  178  A    between atoms: _422  and  _423
REMARK  179  A    between atoms: _425  and  _427
REMARK  180  A    between atoms: _427  and  _428
REMARK  181  A    between atoms: _427  and  _430
REMARK  182  A    between atoms: _430  and  _431
REMARK  183  A    between atoms: _434  and  _436
REMARK  184  A    between atoms: _436  and  _437
REMARK  185  A    between atoms: _436  and  _439
REMARK  186  A    between atoms: _439  and  _440
REMARK  187  A    between atoms: _442  and  _444
REMARK  188  A    between atoms: _444  and  _445
REMARK  189  A    between atoms: _447  and  _449
REMARK  190  A    between atoms: _449  and  _450
REMARK  191  A    between atoms: _452  and  _454
REMARK  192  A    between atoms: _454  and  _455
REMARK  193  A    between atoms: _454  and  _457
REMARK  194  A    between atoms: _457  and  _458
REMARK  195  A    between atoms: _461  and  _463
REMARK  196  A    between atoms: _463  and  _464
REMARK  197  A    between atoms: _463  and  _466
REMARK  198  A    between atoms: _466  and  _467
REMARK  199  A    between atoms: _470  and  _472
REMARK  200  A    between atoms: _472  and  _473
REMARK  201  A    between atoms: _472  and  _475
REMARK  202  A    between atoms: _475  and  _476
REMARK  203  A    between atoms: _478  and  _480
REMARK  204  A    between atoms: _480  and  _481
REMARK  205  A    between atoms: _480  and  _483
REMARK  206  A    between atoms: _483  and  _484
REMARK  207  A    between atoms: _494  and  _496
REMARK  208  A    between atoms: _496  and  _497
REMARK  209  A    between atoms: _499  and  _501
REMARK  210  A    between atoms: _501  and  _502
REMARK  211  A    between atoms: _501  and  _504
REMARK  212  A    between atoms: _504  and  _505
REMARK  213  A    between atoms: _505  and  _506
REMARK  214  A    between atoms: _509  and  _511
REMARK  215  A    between atoms: _511  and  _512
REMARK  216  A    between atoms: _514  and  _516
REMARK  217  A    between atoms: _516  and  _517
REMARK  218  A    between atoms: _516  and  _519
REMARK  219  A    between atoms: _519  and  _520
REMARK  220  A    between atoms: _521  and  _523
REMARK  221  A    between atoms: _523  and  _524
REMARK  222  A    between atoms: _527  and  _529
REMARK  223  A    between atoms: _529  and  _530
REMARK  224  A    between atoms: _529  and  _532
REMARK  225  A    between atoms: _532  and  _533
REMARK  226  A    between atoms: _533  and  _534
REMARK  227  A    between atoms: _539  and  _541
REMARK  228  A    between atoms: _541  and  _542
REMARK  229  A    between atoms: _541  and  _544
REMARK  230  A    between atoms: _544  and  _545
REMARK  231  A    between atoms: _545  and  _546
REMARK  232  A    between atoms: _546  and  _547
REMARK  233  A    between atoms: _557  and  _558
REMARK  234  A    between atoms: _563  and  _565
REMARK  235  A    between atoms: _565  and  _566
REMARK  236  A    between atoms: _568  and  _570
REMARK  237  A    between atoms: _570  and  _571
REMARK  238  A    between atoms: _570  and  _573
REMARK  239  A    between atoms: _576  and  _578
REMARK  240  A    between atoms: _578  and  _579
REMARK  241  A    between atoms: _578  and  _581
REMARK  242  A    between atoms: _581  and  _582
REMARK  243  A    between atoms: _587  and  _588
REMARK  244  A    between atoms: _590  and  _592
REMARK  245  A    between atoms: _592  and  _593
REMARK  246  A    between atoms: _592  and  _595
REMARK  247  A    between atoms: _595  and  _596
REMARK                            x       y       z     vdW  Elec       q    Type
REMARK                         _______ _______ _______ _____ _____    ______ ____
ROOT
ATOM      1  O   HOH     1      36.649 -17.568  24.728  0.00  0.00    +0.000 OA
ENDROOT
TORSDOF 0
REMARK  Name = ../refined-set-2016/4y8x/4y8x_pocket.pdb
REMARK  247 active torsions:
REMARK  status: ('A' for Active; 'I' for Inactive)
REMARK    1  A    between atoms: _1  and  _5
REMARK    2  A    between atoms: _5  and  _6
REMARK    3  A    between atoms: _5  and  _8
REMARK    4  A    between atoms: _8  and  _9
REMARK    5  A    between atoms: _12  and  _14
REMARK    6  A    between atoms: _14  and  _15
REMARK    7  A    between atoms: _14  and  _17
REMARK    8  A    between atoms: _20  and  _22
REMARK    9  A    between atoms: _22  and  _23
REMARK   10  A    between atoms: _22  and  _25
REMARK   11  A    between atoms: _25  and  _26
REMARK   12  A    between atoms: _29  and  _31
REMARK   13  A    between atoms: _31  and  _32
REMARK   14  A    between atoms: _31  and  _34
REMARK   15  A    between atoms: _34  and  _35
REMARK   16  A    between atoms: _38  and  _40
REMARK   17  A    between atoms: _40  and  _41
REMARK   18  A    between atoms: _40  and  _43
REMARK   19  A    between atoms: _43  and  _44
REMARK   20  A    between atoms: _49  and  _51
REMARK   21  A    between atoms: _51  and  _52
REMARK   22  A    between atoms: _51  and  _54
REMARK   23  A    between atoms: _54  and  _55
REMARK   24  A    between atoms: _58  and  _60
REMARK   25  A    between atoms: _60  and  _61
REMARK   26  A    between atoms: _60  and  _63
REMARK   27  A    between atoms: _63  and  _64
REMARK   28  A    between atoms: _67  and  _69
REMARK   29  A    between atoms: _69  and  _70
REMARK   30  A    between atoms: _69  and  _72
REMARK   31  A    between atoms: _72  and  _73
REMARK   32  A    between atoms: _73  and  _74
REMARK   33  A    between atoms: _79  and  _81
REMARK   34  A    between atoms: _81  and  _82
REMARK   35  A    between atoms: _81  and  _84
REMARK   36  A    between atoms: _84  and  _85
REMARK   37  A    between atoms: _85  and  _86
REMARK   38  A    between atoms: _86  and  _87
REMARK   39  A    between atoms: _96  and  _98
REMARK   40  A    between atoms: _98  and  _99
REMARK   41  A    between atoms: _98  and  _101
REMARK   42  A    between atoms: _101  and  _102
REMARK   43  A    between atoms: _107  and  _109
REMARK   44  A    between atoms: _109  and  _110
REMARK   45  A    between atoms: _109  and  _112
REMARK   46  A    between atoms: _112  and  _113
REMARK   47  A    between atoms: _116  and  _118
REMARK   48  A    between atoms: _118  and  _119
REMARK   49  A    between atoms: _118  and  _121
REMARK   50  A    between atoms: _121  and  _122
REMARK   51  A    between atoms: _122  and  _157
REMARK   52  A    between atoms: _123  and  _125
REMARK   53  A    between atoms: _125  and  _126
REMARK   54  A    between atoms: _128  and  _130
REMARK   55  A    between atoms: _130  and  _131
REMARK   56  A    between atoms: _134  and  _136
REMARK   57  A    between atoms: _136  and  _137
REMARK   58  A    between atoms: _140  and  _142
REMARK   59  A    between atoms: _142  and  _143
REMARK   60  A    between atoms: _142  and  _145
REMARK   61  A    between atoms: _145  and  _146
REMARK   62  A    between atoms: _151  and  _153
REMARK   63  A    between atoms: _153  and  _154
REMARK   64  A    between atoms: _153  and  _156
REMARK   65  A    between atoms: _156  and  _157
REMARK   66  A    between atoms: _158  and  _160
REMARK   67  A    between atoms: _160  and  _161
REMARK   68  A    between atoms: _160  and  _163
REMARK   69  A    between atoms: _163  and  _164
REMARK   70  A    between atoms: _170  and  _172
REMARK   71  A    between atoms: _172  and  _173
REMARK   72  A    between atoms: _172  and  _175
REMARK   73  A    between atoms: _175  and  _176
REMARK   74  A    between atoms: _181  and  _182
REMARK   75  A    between atoms: _184  and  _186
REMARK   76  A    between atoms: _186  and  _187
REMARK   77  A    between atoms: _186  and  _189
REMARK   78  A    between atoms: _192  and  _194
REMARK   79  A    between atoms: _194  and  _195
REMARK   80  A    between atoms: _194  and  _197
REMARK   81  A    between atoms: _197  and  _198
REMARK   82  A    between atoms: _198  and  _199
REMARK   83  A    between atoms: _204  and  _206
REMARK   84  A    between atoms: _206  and  _207
REMARK   85  A    between atoms: _210  and  _212
REMARK   86  A    between atoms: _212  and  _213
REMARK   87  A    between atoms: _212  and  _215
REMARK   88  A    between atoms: _215  and  _216
REMARK   89  A    between atoms: _219  and  _221
REMARK   90  A    between atoms: _221  and  _222
REMARK   91  A    between atoms: _221  and  _224
REMARK   92  A    between atoms: _227  and  _229
REMARK   93  A    between atoms: _229  and  _230
REMARK   94  A    between atoms: _229  and  _232
REMARK   95  A    between atoms: _232  and  _233
REMARK   96  A    between atoms: _243  and  _245
REMARK   97  A    between atoms: _245  and  _246
REMARK   98  A    between atoms: _248  and  _250
REMARK   99  A    between atoms: _250  and  _251
REMARK  100  A    between atoms: _250  and  _253
REMARK  101  A    between atoms: _253  and  _254
REMARK  102  A    between atoms: _259  and  _260
REMARK  103  A    between atoms: _262  and  _264
REMARK  104  A    between atoms: _264  and  _265
REMARK  105  A    between atoms: _264  and  _267
REMARK  106  A    between atoms: _267  and  _268
REMARK  107  A    between atoms: _268  and  _269
REMARK  108  A    between atoms: _269  and  _270
REMARK  109  A    between atoms: _270  and  _271
REMARK  110  A    between atoms: _275  and  _277
REMARK  111  A    between atoms: _277  and  _278
REMARK  112  A    between atoms: _277  and  _280
REMARK  113  A    between atoms: _280  and  _281
REMARK  114  A    between atoms: _284  and  _286
REMARK  115  A    between atoms: _286  and  _287
REMARK  116  A    between atoms: _286  and  _289
REMARK  117  A    between atoms: _289  and  _290
REMARK  118  A    between atoms: _293  and  _295
REMARK  119  A    between atoms: _295  and  _296
REMARK  120  A    between atoms: _295  and  _298
REMARK  121  A    between atoms: _298  and  _299
REMARK  122  A    between atoms: _299  and  _300
REMARK  123  A    between atoms: _300  and  _301
REMARK  124  A    between atoms: _301  and  _302
REMARK  125  A    between atoms: _306  and  _308
REMARK  126  A    between atoms: _308  and  _309
REMARK  127  A    between atoms: _308  and  _311
REMARK  128  A    between atoms: _311  and  _312
REMARK  129  A    between atoms: _315  and  _317
REMARK  130  A    between atoms: _317  and  _318
REMARK  131  A    between atoms: _317  and  _320
REMARK  132  A    between atoms: _320  and  _321
REMARK  133  A    between atoms: _321  and  _322
REMARK  134  A    between atoms: _327  and  _329
REMARK  135  A    between atoms: _329  and  _330
REMARK  136  A    between atoms: _329  and  _332
REMARK  137  A    between atoms: _332  and  _333
REMARK  138  A    between atoms: _336  and  _338
REMARK  139  A    between atoms: _338  and  _339
REMARK  140  A    between atoms: _338  and  _341
REMARK  141  A    between atoms: _341  and  _342
REMARK  142  A    between atoms: _347  and  _348
REMARK  143  A    between atoms: _350  and  _352
REMARK  144  A    between atoms: _352  and  _353
REMARK  145  A    between atoms: _352  and  _355
REMARK  146  A    between atoms: _355  and  _356
REMARK  147  A    between atoms: _359  and  _361
REMARK  148  A    between atoms: _361  and  _362
REMARK  149  A    between atoms: _361  and  _364
REMARK  150  A    between atoms: _366  and  _368
REMARK  151  A    between atoms: _368  and  _369
REMARK  152  A    between atoms: _372  and  _374
REMARK  153  A    between atoms: _374  and  _375
REMARK  154  A    between atoms: _374  and  _377
REMARK  155  A    between atoms: _377  and  _378
REMARK  156  A    between atoms: _378  and  _379
REMARK  157  A    between atoms: _379  and  _380
REMARK  158  A    between atoms: _380  and  _381
REMARK  159  A    between atoms: _385  and  _387
REMARK  160  A    between atoms: _387  and  _388
REMARK  161  A    between atoms: _387  and  _390
REMARK  162  A    between atoms: _390  and  _391
REMARK  163  A    between atoms: _394  and  _396
REMARK  164  A    between atoms: _396  and  _397
REMARK  165  A    between atoms: _400  and  _402
REMARK  166  A    between atoms: _402  and  _403
REMARK  167  A    between atoms: _402  and  _405
REMARK  168  A    between atoms: _405  and  _406
REMARK  169  A    between atoms: _406  and  _520
REMARK  170  A    between atoms: _407  and  _409
REMARK  171  A    between atoms: _409  and  _410
REMARK  172  A    between atoms: _409  and  _412
REMARK  173  A    between atoms: _412  and  _413
REMARK  174  A    between atoms: _413  and  _414
REMARK  175  A    between atoms: _414  and  _415
REMARK  176  A    between atoms: _415  and  _416
REMARK  177  A    between atoms: _420  and  _422
REMARK  178  A    between atoms: _422  and  _423
REMARK  179  A    between atoms: _425  and  _427
REMARK  180  A    between atoms: _427  and  _428
REMARK  181  A    between atoms: _427  and  _430
REMARK  182  A    between atoms: _430  and  _431
REMARK  183  A    between atoms: _434  and  _436
REMARK  184  A    between atoms: _436  and  _437
REMARK  185  A    between atoms: _436  and  _439
REMARK  186  A    between atoms: _439  and  _440
REMARK  187  A    between atoms: _442  and  _444
REMARK  188  A    between atoms: _444  and  _445
REMARK  189  A    between atoms: _447  and  _449
REMARK  190  A    between atoms: _449  and  _450
REMARK  191  A    between atoms: _452  and  _454
REMARK  192  A    between atoms: _454  and  _455
REMARK  193  A    between atoms: _454  and  _457
REMARK  194  A    between atoms: _457  and  _458
REMARK  195  A    between atoms: _461  and  _463
REMARK  196  A    between atoms: _463  and  _464
REMARK  197  A    between atoms: _463  and  _466
REMARK  198  A    between atoms: _466  and  _467
REMARK  199  A    between atoms: _470  and  _472
REMARK  200  A    between atoms: _472  and  _473
REMARK  201  A    between atoms: _472  and  _475
REMARK  202  A    between atoms: _475  and  _476
REMARK  203  A    between atoms: _478  and  _480
REMARK  204  A    between atoms: _480  and  _481
REMARK  205  A    between atoms: _480  and  _483
REMARK  206  A    between atoms: _483  and  _484
REMARK  207  A    between atoms: _494  and  _496
REMARK  208  A    between atoms: _496  and  _497
REMARK  209  A    between atoms: _499  and  _501
REMARK  210  A    between atoms: _501  and  _502
REMARK  211  A    between atoms: _501  and  _504
REMARK  212  A    between atoms: _504  and  _505
REMARK  213  A    between atoms: _505  and  _506
REMARK  214  A    between atoms: _509  and  _511
REMARK  215  A    between atoms: _511  and  _512
REMARK  216  A    between atoms: _514  and  _516
REMARK  217  A    between atoms: _516  and  _517
REMARK  218  A    between atoms: _516  and  _519
REMARK  219  A    between atoms: _519  and  _520
REMARK  220  A    between atoms: _521  and  _523
REMARK  221  A    between atoms: _523  and  _524
REMARK  222  A    between atoms: _527  and  _529
REMARK  223  A    between atoms: _529  and  _530
REMARK  224  A    between atoms: _529  and  _532
REMARK  225  A    between atoms: _532  and  _533
REMARK  226  A    between atoms: _533  and  _534
REMARK  227  A    between atoms: _539  and  _541
REMARK  228  A    between atoms: _541  and  _542
REMARK  229  A    between atoms: _541  and  _544
REMARK  230  A    between atoms: _544  and  _545
REMARK  231  A    between atoms: _545  and  _546
REMARK  232  A    between atoms: _546  and  _547
REMARK  233  A    between atoms: _557  and  _558
REMARK  234  A    between atoms: _563  and  _565
REMARK  235  A    between atoms: _565  and  _566
REMARK  236  A    between atoms: _568  and  _570
REMARK  237  A    between atoms: _570  and  _571
REMARK  238  A    between atoms: _570  and  _573
REMARK  239  A    between atoms: _576  and  _578
REMARK  240  A    between atoms: _578  and  _579
REMARK  241  A    between atoms: _578  and  _581
REMARK  242  A    between atoms: _581  and  _582
REMARK  243  A    between atoms: _587  and  _588
REMARK  244  A    between atoms: _590  and  _592
REMARK  245  A    between atoms: _592  and  _593
REMARK  246  A    between atoms: _592  and  _595
REMARK  247  A    between atoms: _595  and  _596
REMARK                            x       y       z     vdW  Elec       q    Type
REMARK                         _______ _______ _______ _____ _____    ______ ____
ROOT
ATOM      1  O   HOH     1      38.343 -17.336  37.722  0.00  0.00    +0.000 OA
ENDROOT
TORSDOF 0
REMARK  Name = ../refined-set-2016/4y8x/4y8x_pocket.pdb
REMARK  247 active torsions:
REMARK  status: ('A' for Active; 'I' for Inactive)
REMARK    1  A    between atoms: _1  and  _5
REMARK    2  A    between atoms: _5  and  _6
REMARK    3  A    between atoms: _5  and  _8
REMARK    4  A    between atoms: _8  and  _9
REMARK    5  A    between atoms: _12  and  _14
REMARK    6  A    between atoms: _14  and  _15
REMARK    7  A    between atoms: _14  and  _17
REMARK    8  A    between atoms: _20  and  _22
REMARK    9  A    between atoms: _22  and  _23
REMARK   10  A    between atoms: _22  and  _25
REMARK   11  A    between atoms: _25  and  _26
REMARK   12  A    between atoms: _29  and  _31
REMARK   13  A    between atoms: _31  and  _32
REMARK   14  A    between atoms: _31  and  _34
REMARK   15  A    between atoms: _34  and  _35
REMARK   16  A    between atoms: _38  and  _40
REMARK   17  A    between atoms: _40  and  _41
REMARK   18  A    between atoms: _40  and  _43
REMARK   19  A    between atoms: _43  and  _44
REMARK   20  A    between atoms: _49  and  _51
REMARK   21  A    between atoms: _51  and  _52
REMARK   22  A    between atoms: _51  and  _54
REMARK   23  A    between atoms: _54  and  _55
REMARK   24  A    between atoms: _58  and  _60
REMARK   25  A    between atoms: _60  and  _61
REMARK   26  A    between atoms: _60  and  _63
REMARK   27  A    between atoms: _63  and  _64
REMARK   28  A    between atoms: _67  and  _69
REMARK   29  A    between atoms: _69  and  _70
REMARK   30  A    between atoms: _69  and  _72
REMARK   31  A    between atoms: _72  and  _73
REMARK   32  A    between atoms: _73  and  _74
REMARK   33  A    between atoms: _79  and  _81
REMARK   34  A    between atoms: _81  and  _82
REMARK   35  A    between atoms: _81  and  _84
REMARK   36  A    between atoms: _84  and  _85
REMARK   37  A    between atoms: _85  and  _86
REMARK   38  A    between atoms: _86  and  _87
REMARK   39  A    between atoms: _96  and  _98
REMARK   40  A    between atoms: _98  and  _99
REMARK   41  A    between atoms: _98  and  _101
REMARK   42  A    between atoms: _101  and  _102
REMARK   43  A    between atoms: _107  and  _109
REMARK   44  A    between atoms: _109  and  _110
REMARK   45  A    between atoms: _109  and  _112
REMARK   46  A    between atoms: _112  and  _113
REMARK   47  A    between atoms: _116  and  _118
REMARK   48  A    between atoms: _118  and  _119
REMARK   49  A    between atoms: _118  and  _121
REMARK   50  A    between atoms: _121  and  _122
REMARK   51  A    between atoms: _122  and  _157
REMARK   52  A    between atoms: _123  and  _125
REMARK   53  A    between atoms: _125  and  _126
REMARK   54  A    between atoms: _128  and  _130
REMARK   55  A    between atoms: _130  and  _131
REMARK   56  A    between atoms: _134  and  _136
REMARK   57  A    between atoms: _136  and  _137
REMARK   58  A    between atoms: _140  and  _142
REMARK   59  A    between atoms: _142  and  _143
REMARK   60  A    between atoms: _142  and  _145
REMARK   61  A    between atoms: _145  and  _146
REMARK   62  A    between atoms: _151  and  _153
REMARK   63  A    between atoms: _153  and  _154
REMARK   64  A    between atoms: _153  and  _156
REMARK   65  A    between atoms: _156  and  _157
REMARK   66  A    between atoms: _158  and  _160
REMARK   67  A    between atoms: _160  and  _161
REMARK   68  A    between atoms: _160  and  _163
REMARK   69  A    between atoms: _163  and  _164
REMARK   70  A    between atoms: _170  and  _172
REMARK   71  A    between atoms: _172  and  _173
REMARK   72  A    between atoms: _172  and  _175
REMARK   73  A    between atoms: _175  and  _176
REMARK   74  A    between atoms: _181  and  _182
REMARK   75  A    between atoms: _184  and  _186
REMARK   76  A    between atoms: _186  and  _187
REMARK   77  A    between atoms: _186  and  _189
REMARK   78  A    between atoms: _192  and  _194
REMARK   79  A    between atoms: _194  and  _195
REMARK   80  A    between atoms: _194  and  _197
REMARK   81  A    between atoms: _197  and  _198
REMARK   82  A    between atoms: _198  and  _199
REMARK   83  A    between atoms: _204  and  _206
REMARK   84  A    between atoms: _206  and  _207
REMARK   85  A    between atoms: _210  and  _212
REMARK   86  A    between atoms: _212  and  _213
REMARK   87  A    between atoms: _212  and  _215
REMARK   88  A    between atoms: _215  and  _216
REMARK   89  A    between atoms: _219  and  _221
REMARK   90  A    between atoms: _221  and  _222
REMARK   91  A    between atoms: _221  and  _224
REMARK   92  A    between atoms: _227  and  _229
REMARK   93  A    between atoms: _229  and  _230
REMARK   94  A    between atoms: _229  and  _232
REMARK   95  A    between atoms: _232  and  _233
REMARK   96  A    between atoms: _243  and  _245
REMARK   97  A    between atoms: _245  and  _246
REMARK   98  A    between atoms: _248  and  _250
REMARK   99  A    between atoms: _250  and  _251
REMARK  100  A    between atoms: _250  and  _253
REMARK  101  A    between atoms: _253  and  _254
REMARK  102  A    between atoms: _259  and  _260
REMARK  103  A    between atoms: _262  and  _264
REMARK  104  A    between atoms: _264  and  _265
REMARK  105  A    between atoms: _264  and  _267
REMARK  106  A    between atoms: _267  and  _268
REMARK  107  A    between atoms: _268  and  _269
REMARK  108  A    between atoms: _269  and  _270
REMARK  109  A    between atoms: _270  and  _271
REMARK  110  A    between atoms: _275  and  _277
REMARK  111  A    between atoms: _277  and  _278
REMARK  112  A    between atoms: _277  and  _280
REMARK  113  A    between atoms: _280  and  _281
REMARK  114  A    between atoms: _284  and  _286
REMARK  115  A    between atoms: _286  and  _287
REMARK  116  A    between atoms: _286  and  _289
REMARK  117  A    between atoms: _289  and  _290
REMARK  118  A    between atoms: _293  and  _295
REMARK  119  A    between atoms: _295  and  _296
REMARK  120  A    between atoms: _295  and  _298
REMARK  121  A    between atoms: _298  and  _299
REMARK  122  A    between atoms: _299  and  _300
REMARK  123  A    between atoms: _300  and  _301
REMARK  124  A    between atoms: _301  and  _302
REMARK  125  A    between atoms: _306  and  _308
REMARK  126  A    between atoms: _308  and  _309
REMARK  127  A    between atoms: _308  and  _311
REMARK  128  A    between atoms: _311  and  _312
REMARK  129  A    between atoms: _315  and  _317
REMARK  130  A    between atoms: _317  and  _318
REMARK  131  A    between atoms: _317  and  _320
REMARK  132  A    between atoms: _320  and  _321
REMARK  133  A    between atoms: _321  and  _322
REMARK  134  A    between atoms: _327  and  _329
REMARK  135  A    between atoms: _329  and  _330
REMARK  136  A    between atoms: _329  and  _332
REMARK  137  A    between atoms: _332  and  _333
REMARK  138  A    between atoms: _336  and  _338
REMARK  139  A    between atoms: _338  and  _339
REMARK  140  A    between atoms: _338  and  _341
REMARK  141  A    between atoms: _341  and  _342
REMARK  142  A    between atoms: _347  and  _348
REMARK  143  A    between atoms: _350  and  _352
REMARK  144  A    between atoms: _352  and  _353
REMARK  145  A    between atoms: _352  and  _355
REMARK  146  A    between atoms: _355  and  _356
REMARK  147  A    between atoms: _359  and  _361
REMARK  148  A    between atoms: _361  and  _362
REMARK  149  A    between atoms: _361  and  _364
REMARK  150  A    between atoms: _366  and  _368
REMARK  151  A    between atoms: _368  and  _369
REMARK  152  A    between atoms: _372  and  _374
REMARK  153  A    between atoms: _374  and  _375
REMARK  154  A    between atoms: _374  and  _377
REMARK  155  A    between atoms: _377  and  _378
REMARK  156  A    between atoms: _378  and  _379
REMARK  157  A    between atoms: _379  and  _380
REMARK  158  A    between atoms: _380  and  _381
REMARK  159  A    between atoms: _385  and  _387
REMARK  160  A    between atoms: _387  and  _388
REMARK  161  A    between atoms: _387  and  _390
REMARK  162  A    between atoms: _390  and  _391
REMARK  163  A    between atoms: _394  and  _396
REMARK  164  A    between atoms: _396  and  _397
REMARK  165  A    between atoms: _400  and  _402
REMARK  166  A    between atoms: _402  and  _403
REMARK  167  A    between atoms: _402  and  _405
REMARK  168  A    between atoms: _405  and  _406
REMARK  169  A    between atoms: _406  and  _520
REMARK  170  A    between atoms: _407  and  _409
REMARK  171  A    between atoms: _409  and  _410
REMARK  172  A    between atoms: _409  and  _412
REMARK  173  A    between atoms: _412  and  _413
REMARK  174  A    between atoms: _413  and  _414
REMARK  175  A    between atoms: _414  and  _415
REMARK  176  A    between atoms: _415  and  _416
REMARK  177  A    between atoms: _420  and  _422
REMARK  178  A    between atoms: _422  and  _423
REMARK  179  A    between atoms: _425  and  _427
REMARK  180  A    between atoms: _427  and  _428
REMARK  181  A    between atoms: _427  and  _430
REMARK  182  A    between atoms: _430  and  _431
REMARK  183  A    between atoms: _434  and  _436
REMARK  184  A    between atoms: _436  and  _437
REMARK  185  A    between atoms: _436  and  _439
REMARK  186  A    between atoms: _439  and  _440
REMARK  187  A    between atoms: _442  and  _444
REMARK  188  A    between atoms: _444  and  _445
REMARK  189  A    between atoms: _447  and  _449
REMARK  190  A    between atoms: _449  and  _450
REMARK  191  A    between atoms: _452  and  _454
REMARK  192  A    between atoms: _454  and  _455
REMARK  193  A    between atoms: _454  and  _457
REMARK  194  A    between atoms: _457  and  _458
REMARK  195  A    between atoms: _461  and  _463
REMARK  196  A    between atoms: _463  and  _464
REMARK  197  A    between atoms: _463  and  _466
REMARK  198  A    between atoms: _466  and  _467
REMARK  199  A    between atoms: _470  and  _472
REMARK  200  A    between atoms: _472  and  _473
REMARK  201  A    between atoms: _472  and  _475
REMARK  202  A    between atoms: _475  and  _476
REMARK  203  A    between atoms: _478  and  _480
REMARK  204  A    between atoms: _480  and  _481
REMARK  205  A    between atoms: _480  and  _483
REMARK  206  A    between atoms: _483  and  _484
REMARK  207  A    between atoms: _494  and  _496
REMARK  208  A    between atoms: _496  and  _497
REMARK  209  A    between atoms: _499  and  _501
REMARK  210  A    between atoms: _501  and  _502
REMARK  211  A    between atoms: _501  and  _504
REMARK  212  A    between atoms: _504  and  _505
REMARK  213  A    between atoms: _505  and  _506
REMARK  214  A    between atoms: _509  and  _511
REMARK  215  A    between atoms: _511  and  _512
REMARK  216  A    between atoms: _514  and  _516
REMARK  217  A    between atoms: _516  and  _517
REMARK  218  A    between atoms: _516  and  _519
REMARK  219  A    between atoms: _519  and  _520
REMARK  220  A    between atoms: _521  and  _523
REMARK  221  A    between atoms: _523  and  _524
REMARK  222  A    between atoms: _527  and  _529
REMARK  223  A    between atoms: _529  and  _530
REMARK  224  A    between atoms: _529  and  _532
REMARK  225  A    between atoms: _532  and  _533
REMARK  226  A    between atoms: _533  and  _534
REMARK  227  A    between atoms: _539  and  _541
REMARK  228  A    between atoms: _541  and  _542
REMARK  229  A    between atoms: _541  and  _544
REMARK  230  A    between atoms: _544  and  _545
REMARK  231  A    between atoms: _545  and  _546
REMARK  232  A    between atoms: _546  and  _547
REMARK  233  A    between atoms: _557  and  _558
REMARK  234  A    between atoms: _563  and  _565
REMARK  235  A    between atoms: _565  and  _566
REMARK  236  A    between atoms: _568  and  _570
REMARK  237  A    between atoms: _570  and  _571
REMARK  238  A    between atoms: _570  and  _573
REMARK  239  A    between atoms: _576  and  _578
REMARK  240  A    between atoms: _578  and  _579
REMARK  241  A    between atoms: _578  and  _581
REMARK  242  A    between atoms: _581  and  _582
REMARK  243  A    between atoms: _587  and  _588
REMARK  244  A    between atoms: _590  and  _592
REMARK  245  A    between atoms: _592  and  _593
REMARK  246  A    between atoms: _592  and  _595
REMARK  247  A    between atoms: _595  and  _596
REMARK                            x       y       z     vdW  Elec       q    Type
REMARK                         _______ _______ _______ _____ _____    ______ ____
ROOT
ATOM      1  O   HOH     1      35.448 -15.472  37.035  0.00  0.00    +0.000 OA
ENDROOT
TORSDOF 0
REMARK  Name = ../refined-set-2016/4y8x/4y8x_pocket.pdb
REMARK  247 active torsions:
REMARK  status: ('A' for Active; 'I' for Inactive)
REMARK    1  A    between atoms: _1  and  _5
REMARK    2  A    between atoms: _5  and  _6
REMARK    3  A    between atoms: _5  and  _8
REMARK    4  A    between atoms: _8  and  _9
REMARK    5  A    between atoms: _12  and  _14
REMARK    6  A    between atoms: _14  and  _15
REMARK    7  A    between atoms: _14  and  _17
REMARK    8  A    between atoms: _20  and  _22
REMARK    9  A    between atoms: _22  and  _23
REMARK   10  A    between atoms: _22  and  _25
REMARK   11  A    between atoms: _25  and  _26
REMARK   12  A    between atoms: _29  and  _31
REMARK   13  A    between atoms: _31  and  _32
REMARK   14  A    between atoms: _31  and  _34
REMARK   15  A    between atoms: _34  and  _35
REMARK   16  A    between atoms: _38  and  _40
REMARK   17  A    between atoms: _40  and  _41
REMARK   18  A    between atoms: _40  and  _43
REMARK   19  A    between atoms: _43  and  _44
REMARK   20  A    between atoms: _49  and  _51
REMARK   21  A    between atoms: _51  and  _52
REMARK   22  A    between atoms: _51  and  _54
REMARK   23  A    between atoms: _54  and  _55
REMARK   24  A    between atoms: _58  and  _60
REMARK   25  A    between atoms: _60  and  _61
REMARK   26  A    between atoms: _60  and  _63
REMARK   27  A    between atoms: _63  and  _64
REMARK   28  A    between atoms: _67  and  _69
REMARK   29  A    between atoms: _69  and  _70
REMARK   30  A    between atoms: _69  and  _72
REMARK   31  A    between atoms: _72  and  _73
REMARK   32  A    between atoms: _73  and  _74
REMARK   33  A    between atoms: _79  and  _81
REMARK   34  A    between atoms: _81  and  _82
REMARK   35  A    between atoms: _81  and  _84
REMARK   36  A    between atoms: _84  and  _85
REMARK   37  A    between atoms: _85  and  _86
REMARK   38  A    between atoms: _86  and  _87
REMARK   39  A    between atoms: _96  and  _98
REMARK   40  A    between atoms: _98  and  _99
REMARK   41  A    between atoms: _98  and  _101
REMARK   42  A    between atoms: _101  and  _102
REMARK   43  A    between atoms: _107  and  _109
REMARK   44  A    between atoms: _109  and  _110
REMARK   45  A    between atoms: _109  and  _112
REMARK   46  A    between atoms: _112  and  _113
REMARK   47  A    between atoms: _116  and  _118
REMARK   48  A    between atoms: _118  and  _119
REMARK   49  A    between atoms: _118  and  _121
REMARK   50  A    between atoms: _121  and  _122
REMARK   51  A    between atoms: _122  and  _157
REMARK   52  A    between atoms: _123  and  _125
REMARK   53  A    between atoms: _125  and  _126
REMARK   54  A    between atoms: _128  and  _130
REMARK   55  A    between atoms: _130  and  _131
REMARK   56  A    between atoms: _134  and  _136
REMARK   57  A    between atoms: _136  and  _137
REMARK   58  A    between atoms: _140  and  _142
REMARK   59  A    between atoms: _142  and  _143
REMARK   60  A    between atoms: _142  and  _145
REMARK   61  A    between atoms: _145  and  _146
REMARK   62  A    between atoms: _151  and  _153
REMARK   63  A    between atoms: _153  and  _154
REMARK   64  A    between atoms: _153  and  _156
REMARK   65  A    between atoms: _156  and  _157
REMARK   66  A    between atoms: _158  and  _160
REMARK   67  A    between atoms: _160  and  _161
REMARK   68  A    between atoms: _160  and  _163
REMARK   69  A    between atoms: _163  and  _164
REMARK   70  A    between atoms: _170  and  _172
REMARK   71  A    between atoms: _172  and  _173
REMARK   72  A    between atoms: _172  and  _175
REMARK   73  A    between atoms: _175  and  _176
REMARK   74  A    between atoms: _181  and  _182
REMARK   75  A    between atoms: _184  and  _186
REMARK   76  A    between atoms: _186  and  _187
REMARK   77  A    between atoms: _186  and  _189
REMARK   78  A    between atoms: _192  and  _194
REMARK   79  A    between atoms: _194  and  _195
REMARK   80  A    between atoms: _194  and  _197
REMARK   81  A    between atoms: _197  and  _198
REMARK   82  A    between atoms: _198  and  _199
REMARK   83  A    between atoms: _204  and  _206
REMARK   84  A    between atoms: _206  and  _207
REMARK   85  A    between atoms: _210  and  _212
REMARK   86  A    between atoms: _212  and  _213
REMARK   87  A    between atoms: _212  and  _215
REMARK   88  A    between atoms: _215  and  _216
REMARK   89  A    between atoms: _219  and  _221
REMARK   90  A    between atoms: _221  and  _222
REMARK   91  A    between atoms: _221  and  _224
REMARK   92  A    between atoms: _227  and  _229
REMARK   93  A    between atoms: _229  and  _230
REMARK   94  A    between atoms: _229  and  _232
REMARK   95  A    between atoms: _232  and  _233
REMARK   96  A    between atoms: _243  and  _245
REMARK   97  A    between atoms: _245  and  _246
REMARK   98  A    between atoms: _248  and  _250
REMARK   99  A    between atoms: _250  and  _251
REMARK  100  A    between atoms: _250  and  _253
REMARK  101  A    between atoms: _253  and  _254
REMARK  102  A    between atoms: _259  and  _260
REMARK  103  A    between atoms: _262  and  _264
REMARK  104  A    between atoms: _264  and  _265
REMARK  105  A    between atoms: _264  and  _267
REMARK  106  A    between atoms: _267  and  _268
REMARK  107  A    between atoms: _268  and  _269
REMARK  108  A    between atoms: _269  and  _270
REMARK  109  A    between atoms: _270  and  _271
REMARK  110  A    between atoms: _275  and  _277
REMARK  111  A    between atoms: _277  and  _278
REMARK  112  A    between atoms: _277  and  _280
REMARK  113  A    between atoms: _280  and  _281
REMARK  114  A    between atoms: _284  and  _286
REMARK  115  A    between atoms: _286  and  _287
REMARK  116  A    between atoms: _286  and  _289
REMARK  117  A    between atoms: _289  and  _290
REMARK  118  A    between atoms: _293  and  _295
REMARK  119  A    between atoms: _295  and  _296
REMARK  120  A    between atoms: _295  and  _298
REMARK  121  A    between atoms: _298  and  _299
REMARK  122  A    between atoms: _299  and  _300
REMARK  123  A    between atoms: _300  and  _301
REMARK  124  A    between atoms: _301  and  _302
REMARK  125  A    between atoms: _306  and  _308
REMARK  126  A    between atoms: _308  and  _309
REMARK  127  A    between atoms: _308  and  _311
REMARK  128  A    between atoms: _311  and  _312
REMARK  129  A    between atoms: _315  and  _317
REMARK  130  A    between atoms: _317  and  _318
REMARK  131  A    between atoms: _317  and  _320
REMARK  132  A    between atoms: _320  and  _321
REMARK  133  A    between atoms: _321  and  _322
REMARK  134  A    between atoms: _327  and  _329
REMARK  135  A    between atoms: _329  and  _330
REMARK  136  A    between atoms: _329  and  _332
REMARK  137  A    between atoms: _332  and  _333
REMARK  138  A    between atoms: _336  and  _338
REMARK  139  A    between atoms: _338  and  _339
REMARK  140  A    between atoms: _338  and  _341
REMARK  141  A    between atoms: _341  and  _342
REMARK  142  A    between atoms: _347  and  _348
REMARK  143  A    between atoms: _350  and  _352
REMARK  144  A    between atoms: _352  and  _353
REMARK  145  A    between atoms: _352  and  _355
REMARK  146  A    between atoms: _355  and  _356
REMARK  147  A    between atoms: _359  and  _361
REMARK  148  A    between atoms: _361  and  _362
REMARK  149  A    between atoms: _361  and  _364
REMARK  150  A    between atoms: _366  and  _368
REMARK  151  A    between atoms: _368  and  _369
REMARK  152  A    between atoms: _372  and  _374
REMARK  153  A    between atoms: _374  and  _375
REMARK  154  A    between atoms: _374  and  _377
REMARK  155  A    between atoms: _377  and  _378
REMARK  156  A    between atoms: _378  and  _379
REMARK  157  A    between atoms: _379  and  _380
REMARK  158  A    between atoms: _380  and  _381
REMARK  159  A    between atoms: _385  and  _387
REMARK  160  A    between atoms: _387  and  _388
REMARK  161  A    between atoms: _387  and  _390
REMARK  162  A    between atoms: _390  and  _391
REMARK  163  A    between atoms: _394  and  _396
REMARK  164  A    between atoms: _396  and  _397
REMARK  165  A    between atoms: _400  and  _402
REMARK  166  A    between atoms: _402  and  _403
REMARK  167  A    between atoms: _402  and  _405
REMARK  168  A    between atoms: _405  and  _406
REMARK  169  A    between atoms: _406  and  _520
REMARK  170  A    between atoms: _407  and  _409
REMARK  171  A    between atoms: _409  and  _410
REMARK  172  A    between atoms: _409  and  _412
REMARK  173  A    between atoms: _412  and  _413
REMARK  174  A    between atoms: _413  and  _414
REMARK  175  A    between atoms: _414  and  _415
REMARK  176  A    between atoms: _415  and  _416
REMARK  177  A    between atoms: _420  and  _422
REMARK  178  A    between atoms: _422  and  _423
REMARK  179  A    between atoms: _425  and  _427
REMARK  180  A    between atoms: _427  and  _428
REMARK  181  A    between atoms: _427  and  _430
REMARK  182  A    between atoms: _430  and  _431
REMARK  183  A    between atoms: _434  and  _436
REMARK  184  A    between atoms: _436  and  _437
REMARK  185  A    between atoms: _436  and  _439
REMARK  186  A    between atoms: _439  and  _440
REMARK  187  A    between atoms: _442  and  _444
REMARK  188  A    between atoms: _444  and  _445
REMARK  189  A    between atoms: _447  and  _449
REMARK  190  A    between atoms: _449  and  _450
REMARK  191  A    between atoms: _452  and  _454
REMARK  192  A    between atoms: _454  and  _455
REMARK  193  A    between atoms: _454  and  _457
REMARK  194  A    between atoms: _457  and  _458
REMARK  195  A    between atoms: _461  and  _463
REMARK  196  A    between atoms: _463  and  _464
REMARK  197  A    between atoms: _463  and  _466
REMARK  198  A    between atoms: _466  and  _467
REMARK  199  A    between atoms: _470  and  _472
REMARK  200  A    between atoms: _472  and  _473
REMARK  201  A    between atoms: _472  and  _475
REMARK  202  A    between atoms: _475  and  _476
REMARK  203  A    between atoms: _478  and  _480
REMARK  204  A    between atoms: _480  and  _481
REMARK  205  A    between atoms: _480  and  _483
REMARK  206  A    between atoms: _483  and  _484
REMARK  207  A    between atoms: _494  and  _496
REMARK  208  A    between atoms: _496  and  _497
REMARK  209  A    between atoms: _499  and  _501
REMARK  210  A    between atoms: _501  and  _502
REMARK  211  A    between atoms: _501  and  _504
REMARK  212  A    between atoms: _504  and  _505
REMARK  213  A    between atoms: _505  and  _506
REMARK  214  A    between atoms: _509  and  _511
REMARK  215  A    between atoms: _511  and  _512
REMARK  216  A    between atoms: _514  and  _516
REMARK  217  A    between atoms: _516  and  _517
REMARK  218  A    between atoms: _516  and  _519
REMARK  219  A    between atoms: _519  and  _520
REMARK  220  A    between atoms: _521  and  _523
REMARK  221  A    between atoms: _523  and  _524
REMARK  222  A    between atoms: _527  and  _529
REMARK  223  A    between atoms: _529  and  _530
REMARK  224  A    between atoms: _529  and  _532
REMARK  225  A    between atoms: _532  and  _533
REMARK  226  A    between atoms: _533  and  _534
REMARK  227  A    between atoms: _539  and  _541
REMARK  228  A    between atoms: _541  and  _542
REMARK  229  A    between atoms: _541  and  _544
REMARK  230  A    between atoms: _544  and  _545
REMARK  231  A    between atoms: _545  and  _546
REMARK  232  A    between atoms: _546  and  _547
REMARK  233  A    between atoms: _557  and  _558
REMARK  234  A    between atoms: _563  and  _565
REMARK  235  A    between atoms: _565  and  _566
REMARK  236  A    between atoms: _568  and  _570
REMARK  237  A    between atoms: _570  and  _571
REMARK  238  A    between atoms: _570  and  _573
REMARK  239  A    between atoms: _576  and  _578
REMARK  240  A    between atoms: _578  and  _579
REMARK  241  A    between atoms: _578  and  _581
REMARK  242  A    between atoms: _581  and  _582
REMARK  243  A    between atoms: _587  and  _588
REMARK  244  A    between atoms: _590  and  _592
REMARK  245  A    between atoms: _592  and  _593
REMARK  246  A    between atoms: _592  and  _595
REMARK  247  A    between atoms: _595  and  _596
REMARK                            x       y       z     vdW  Elec       q    Type
REMARK                         _______ _______ _______ _____ _____    ______ ____
ROOT
ATOM      1  O   HOH     1      36.506  -9.190  23.939  0.00  0.00    +0.000 OA
ENDROOT
TORSDOF 0
REMARK  Name = ../refined-set-2016/4y8x/4y8x_pocket.pdb
REMARK  247 active torsions:
REMARK  status: ('A' for Active; 'I' for Inactive)
REMARK    1  A    between atoms: _1  and  _5
REMARK    2  A    between atoms: _5  and  _6
REMARK    3  A    between atoms: _5  and  _8
REMARK    4  A    between atoms: _8  and  _9
REMARK    5  A    between atoms: _12  and  _14
REMARK    6  A    between atoms: _14  and  _15
REMARK    7  A    between atoms: _14  and  _17
REMARK    8  A    between atoms: _20  and  _22
REMARK    9  A    between atoms: _22  and  _23
REMARK   10  A    between atoms: _22  and  _25
REMARK   11  A    between atoms: _25  and  _26
REMARK   12  A    between atoms: _29  and  _31
REMARK   13  A    between atoms: _31  and  _32
REMARK   14  A    between atoms: _31  and  _34
REMARK   15  A    between atoms: _34  and  _35
REMARK   16  A    between atoms: _38  and  _40
REMARK   17  A    between atoms: _40  and  _41
REMARK   18  A    between atoms: _40  and  _43
REMARK   19  A    between atoms: _43  and  _44
REMARK   20  A    between atoms: _49  and  _51
REMARK   21  A    between atoms: _51  and  _52
REMARK   22  A    between atoms: _51  and  _54
REMARK   23  A    between atoms: _54  and  _55
REMARK   24  A    between atoms: _58  and  _60
REMARK   25  A    between atoms: _60  and  _61
REMARK   26  A    between atoms: _60  and  _63
REMARK   27  A    between atoms: _63  and  _64
REMARK   28  A    between atoms: _67  and  _69
REMARK   29  A    between atoms: _69  and  _70
REMARK   30  A    between atoms: _69  and  _72
REMARK   31  A    between atoms: _72  and  _73
REMARK   32  A    between atoms: _73  and  _74
REMARK   33  A    between atoms: _79  and  _81
REMARK   34  A    between atoms: _81  and  _82
REMARK   35  A    between atoms: _81  and  _84
REMARK   36  A    between atoms: _84  and  _85
REMARK   37  A    between atoms: _85  and  _86
REMARK   38  A    between atoms: _86  and  _87
REMARK   39  A    between atoms: _96  and  _98
REMARK   40  A    between atoms: _98  and  _99
REMARK   41  A    between atoms: _98  and  _101
REMARK   42  A    between atoms: _101  and  _102
REMARK   43  A    between atoms: _107  and  _109
REMARK   44  A    between atoms: _109  and  _110
REMARK   45  A    between atoms: _109  and  _112
REMARK   46  A    between atoms: _112  and  _113
REMARK   47  A    between atoms: _116  and  _118
REMARK   48  A    between atoms: _118  and  _119
REMARK   49  A    between atoms: _118  and  _121
REMARK   50  A    between atoms: _121  and  _122
REMARK   51  A    between atoms: _122  and  _157
REMARK   52  A    between atoms: _123  and  _125
REMARK   53  A    between atoms: _125  and  _126
REMARK   54  A    between atoms: _128  and  _130
REMARK   55  A    between atoms: _130  and  _131
REMARK   56  A    between atoms: _134  and  _136
REMARK   57  A    between atoms: _136  and  _137
REMARK   58  A    between atoms: _140  and  _142
REMARK   59  A    between atoms: _142  and  _143
REMARK   60  A    between atoms: _142  and  _145
REMARK   61  A    between atoms: _145  and  _146
REMARK   62  A    between atoms: _151  and  _153
REMARK   63  A    between atoms: _153  and  _154
REMARK   64  A    between atoms: _153  and  _156
REMARK   65  A    between atoms: _156  and  _157
REMARK   66  A    between atoms: _158  and  _160
REMARK   67  A    between atoms: _160  and  _161
REMARK   68  A    between atoms: _160  and  _163
REMARK   69  A    between atoms: _163  and  _164
REMARK   70  A    between atoms: _170  and  _172
REMARK   71  A    between atoms: _172  and  _173
REMARK   72  A    between atoms: _172  and  _175
REMARK   73  A    between atoms: _175  and  _176
REMARK   74  A    between atoms: _181  and  _182
REMARK   75  A    between atoms: _184  and  _186
REMARK   76  A    between atoms: _186  and  _187
REMARK   77  A    between atoms: _186  and  _189
REMARK   78  A    between atoms: _192  and  _194
REMARK   79  A    between atoms: _194  and  _195
REMARK   80  A    between atoms: _194  and  _197
REMARK   81  A    between atoms: _197  and  _198
REMARK   82  A    between atoms: _198  and  _199
REMARK   83  A    between atoms: _204  and  _206
REMARK   84  A    between atoms: _206  and  _207
REMARK   85  A    between atoms: _210  and  _212
REMARK   86  A    between atoms: _212  and  _213
REMARK   87  A    between atoms: _212  and  _215
REMARK   88  A    between atoms: _215  and  _216
REMARK   89  A    between atoms: _219  and  _221
REMARK   90  A    between atoms: _221  and  _222
REMARK   91  A    between atoms: _221  and  _224
REMARK   92  A    between atoms: _227  and  _229
REMARK   93  A    between atoms: _229  and  _230
REMARK   94  A    between atoms: _229  and  _232
REMARK   95  A    between atoms: _232  and  _233
REMARK   96  A    between atoms: _243  and  _245
REMARK   97  A    between atoms: _245  and  _246
REMARK   98  A    between atoms: _248  and  _250
REMARK   99  A    between atoms: _250  and  _251
REMARK  100  A    between atoms: _250  and  _253
REMARK  101  A    between atoms: _253  and  _254
REMARK  102  A    between atoms: _259  and  _260
REMARK  103  A    between atoms: _262  and  _264
REMARK  104  A    between atoms: _264  and  _265
REMARK  105  A    between atoms: _264  and  _267
REMARK  106  A    between atoms: _267  and  _268
REMARK  107  A    between atoms: _268  and  _269
REMARK  108  A    between atoms: _269  and  _270
REMARK  109  A    between atoms: _270  and  _271
REMARK  110  A    between atoms: _275  and  _277
REMARK  111  A    between atoms: _277  and  _278
REMARK  112  A    between atoms: _277  and  _280
REMARK  113  A    between atoms: _280  and  _281
REMARK  114  A    between atoms: _284  and  _286
REMARK  115  A    between atoms: _286  and  _287
REMARK  116  A    between atoms: _286  and  _289
REMARK  117  A    between atoms: _289  and  _290
REMARK  118  A    between atoms: _293  and  _295
REMARK  119  A    between atoms: _295  and  _296
REMARK  120  A    between atoms: _295  and  _298
REMARK  121  A    between atoms: _298  and  _299
REMARK  122  A    between atoms: _299  and  _300
REMARK  123  A    between atoms: _300  and  _301
REMARK  124  A    between atoms: _301  and  _302
REMARK  125  A    between atoms: _306  and  _308
REMARK  126  A    between atoms: _308  and  _309
REMARK  127  A    between atoms: _308  and  _311
REMARK  128  A    between atoms: _311  and  _312
REMARK  129  A    between atoms: _315  and  _317
REMARK  130  A    between atoms: _317  and  _318
REMARK  131  A    between atoms: _317  and  _320
REMARK  132  A    between atoms: _320  and  _321
REMARK  133  A    between atoms: _321  and  _322
REMARK  134  A    between atoms: _327  and  _329
REMARK  135  A    between atoms: _329  and  _330
REMARK  136  A    between atoms: _329  and  _332
REMARK  137  A    between atoms: _332  and  _333
REMARK  138  A    between atoms: _336  and  _338
REMARK  139  A    between atoms: _338  and  _339
REMARK  140  A    between atoms: _338  and  _341
REMARK  141  A    between atoms: _341  and  _342
REMARK  142  A    between atoms: _347  and  _348
REMARK  143  A    between atoms: _350  and  _352
REMARK  144  A    between atoms: _352  and  _353
REMARK  145  A    between atoms: _352  and  _355
REMARK  146  A    between atoms: _355  and  _356
REMARK  147  A    between atoms: _359  and  _361
REMARK  148  A    between atoms: _361  and  _362
REMARK  149  A    between atoms: _361  and  _364
REMARK  150  A    between atoms: _366  and  _368
REMARK  151  A    between atoms: _368  and  _369
REMARK  152  A    between atoms: _372  and  _374
REMARK  153  A    between atoms: _374  and  _375
REMARK  154  A    between atoms: _374  and  _377
REMARK  155  A    between atoms: _377  and  _378
REMARK  156  A    between atoms: _378  and  _379
REMARK  157  A    between atoms: _379  and  _380
REMARK  158  A    between atoms: _380  and  _381
REMARK  159  A    between atoms: _385  and  _387
REMARK  160  A    between atoms: _387  and  _388
REMARK  161  A    between atoms: _387  and  _390
REMARK  162  A    between atoms: _390  and  _391
REMARK  163  A    between atoms: _394  and  _396
REMARK  164  A    between atoms: _396  and  _397
REMARK  165  A    between atoms: _400  and  _402
REMARK  166  A    between atoms: _402  and  _403
REMARK  167  A    between atoms: _402  and  _405
REMARK  168  A    between atoms: _405  and  _406
REMARK  169  A    between atoms: _406  and  _520
REMARK  170  A    between atoms: _407  and  _409
REMARK  171  A    between atoms: _409  and  _410
REMARK  172  A    between atoms: _409  and  _412
REMARK  173  A    between atoms: _412  and  _413
REMARK  174  A    between atoms: _413  and  _414
REMARK  175  A    between atoms: _414  and  _415
REMARK  176  A    between atoms: _415  and  _416
REMARK  177  A    between atoms: _420  and  _422
REMARK  178  A    between atoms: _422  and  _423
REMARK  179  A    between atoms: _425  and  _427
REMARK  180  A    between atoms: _427  and  _428
REMARK  181  A    between atoms: _427  and  _430
REMARK  182  A    between atoms: _430  and  _431
REMARK  183  A    between atoms: _434  and  _436
REMARK  184  A    between atoms: _436  and  _437
REMARK  185  A    between atoms: _436  and  _439
REMARK  186  A    between atoms: _439  and  _440
REMARK  187  A    between atoms: _442  and  _444
REMARK  188  A    between atoms: _444  and  _445
REMARK  189  A    between atoms: _447  and  _449
REMARK  190  A    between atoms: _449  and  _450
REMARK  191  A    between atoms: _452  and  _454
REMARK  192  A    between atoms: _454  and  _455
REMARK  193  A    between atoms: _454  and  _457
REMARK  194  A    between atoms: _457  and  _458
REMARK  195  A    between atoms: _461  and  _463
REMARK  196  A    between atoms: _463  and  _464
REMARK  197  A    between atoms: _463  and  _466
REMARK  198  A    between atoms: _466  and  _467
REMARK  199  A    between atoms: _470  and  _472
REMARK  200  A    between atoms: _472  and  _473
REMARK  201  A    between atoms: _472  and  _475
REMARK  202  A    between atoms: _475  and  _476
REMARK  203  A    between atoms: _478  and  _480
REMARK  204  A    between atoms: _480  and  _481
REMARK  205  A    between atoms: _480  and  _483
REMARK  206  A    between atoms: _483  and  _484
REMARK  207  A    between atoms: _494  and  _496
REMARK  208  A    between atoms: _496  and  _497
REMARK  209  A    between atoms: _499  and  _501
REMARK  210  A    between atoms: _501  and  _502
REMARK  211  A    between atoms: _501  and  _504
REMARK  212  A    between atoms: _504  and  _505
REMARK  213  A    between atoms: _505  and  _506
REMARK  214  A    between atoms: _509  and  _511
REMARK  215  A    between atoms: _511  and  _512
REMARK  216  A    between atoms: _514  and  _516
REMARK  217  A    between atoms: _516  and  _517
REMARK  218  A    between atoms: _516  and  _519
REMARK  219  A    between atoms: _519  and  _520
REMARK  220  A    between atoms: _521  and  _523
REMARK  221  A    between atoms: _523  and  _524
REMARK  222  A    between atoms: _527  and  _529
REMARK  223  A    between atoms: _529  and  _530
REMARK  224  A    between atoms: _529  and  _532
REMARK  225  A    between atoms: _532  and  _533
REMARK  226  A    between atoms: _533  and  _534
REMARK  227  A    between atoms: _539  and  _541
REMARK  228  A    between atoms: _541  and  _542
REMARK  229  A    between atoms: _541  and  _544
REMARK  230  A    between atoms: _544  and  _545
REMARK  231  A    between atoms: _545  and  _546
REMARK  232  A    between atoms: _546  and  _547
REMARK  233  A    between atoms: _557  and  _558
REMARK  234  A    between atoms: _563  and  _565
REMARK  235  A    between atoms: _565  and  _566
REMARK  236  A    between atoms: _568  and  _570
REMARK  237  A    between atoms: _570  and  _571
REMARK  238  A    between atoms: _570  and  _573
REMARK  239  A    between atoms: _576  and  _578
REMARK  240  A    between atoms: _578  and  _579
REMARK  241  A    between atoms: _578  and  _581
REMARK  242  A    between atoms: _581  and  _582
REMARK  243  A    between atoms: _587  and  _588
REMARK  244  A    between atoms: _590  and  _592
REMARK  245  A    between atoms: _592  and  _593
REMARK  246  A    between atoms: _592  and  _595
REMARK  247  A    between atoms: _595  and  _596
REMARK                            x       y       z     vdW  Elec       q    Type
REMARK                         _______ _______ _______ _____ _____    ______ ____
ROOT
ATOM      1  O   HOH     1      49.923 -22.746  37.891  0.00  0.00    +0.000 OA
ENDROOT
TORSDOF 0
REMARK  Name = ../refined-set-2016/4y8x/4y8x_pocket.pdb
REMARK  247 active torsions:
REMARK  status: ('A' for Active; 'I' for Inactive)
REMARK    1  A    between atoms: _1  and  _5
REMARK    2  A    between atoms: _5  and  _6
REMARK    3  A    between atoms: _5  and  _8
REMARK    4  A    between atoms: _8  and  _9
REMARK    5  A    between atoms: _12  and  _14
REMARK    6  A    between atoms: _14  and  _15
REMARK    7  A    between atoms: _14  and  _17
REMARK    8  A    between atoms: _20  and  _22
REMARK    9  A    between atoms: _22  and  _23
REMARK   10  A    between atoms: _22  and  _25
REMARK   11  A    between atoms: _25  and  _26
REMARK   12  A    between atoms: _29  and  _31
REMARK   13  A    between atoms: _31  and  _32
REMARK   14  A    between atoms: _31  and  _34
REMARK   15  A    between atoms: _34  and  _35
REMARK   16  A    between atoms: _38  and  _40
REMARK   17  A    between atoms: _40  and  _41
REMARK   18  A    between atoms: _40  and  _43
REMARK   19  A    between atoms: _43  and  _44
REMARK   20  A    between atoms: _49  and  _51
REMARK   21  A    between atoms: _51  and  _52
REMARK   22  A    between atoms: _51  and  _54
REMARK   23  A    between atoms: _54  and  _55
REMARK   24  A    between atoms: _58  and  _60
REMARK   25  A    between atoms: _60  and  _61
REMARK   26  A    between atoms: _60  and  _63
REMARK   27  A    between atoms: _63  and  _64
REMARK   28  A    between atoms: _67  and  _69
REMARK   29  A    between atoms: _69  and  _70
REMARK   30  A    between atoms: _69  and  _72
REMARK   31  A    between atoms: _72  and  _73
REMARK   32  A    between atoms: _73  and  _74
REMARK   33  A    between atoms: _79  and  _81
REMARK   34  A    between atoms: _81  and  _82
REMARK   35  A    between atoms: _81  and  _84
REMARK   36  A    between atoms: _84  and  _85
REMARK   37  A    between atoms: _85  and  _86
REMARK   38  A    between atoms: _86  and  _87
REMARK   39  A    between atoms: _96  and  _98
REMARK   40  A    between atoms: _98  and  _99
REMARK   41  A    between atoms: _98  and  _101
REMARK   42  A    between atoms: _101  and  _102
REMARK   43  A    between atoms: _107  and  _109
REMARK   44  A    between atoms: _109  and  _110
REMARK   45  A    between atoms: _109  and  _112
REMARK   46  A    between atoms: _112  and  _113
REMARK   47  A    between atoms: _116  and  _118
REMARK   48  A    between atoms: _118  and  _119
REMARK   49  A    between atoms: _118  and  _121
REMARK   50  A    between atoms: _121  and  _122
REMARK   51  A    between atoms: _122  and  _157
REMARK   52  A    between atoms: _123  and  _125
REMARK   53  A    between atoms: _125  and  _126
REMARK   54  A    between atoms: _128  and  _130
REMARK   55  A    between atoms: _130  and  _131
REMARK   56  A    between atoms: _134  and  _136
REMARK   57  A    between atoms: _136  and  _137
REMARK   58  A    between atoms: _140  and  _142
REMARK   59  A    between atoms: _142  and  _143
REMARK   60  A    between atoms: _142  and  _145
REMARK   61  A    between atoms: _145  and  _146
REMARK   62  A    between atoms: _151  and  _153
REMARK   63  A    between atoms: _153  and  _154
REMARK   64  A    between atoms: _153  and  _156
REMARK   65  A    between atoms: _156  and  _157
REMARK   66  A    between atoms: _158  and  _160
REMARK   67  A    between atoms: _160  and  _161
REMARK   68  A    between atoms: _160  and  _163
REMARK   69  A    between atoms: _163  and  _164
REMARK   70  A    between atoms: _170  and  _172
REMARK   71  A    between atoms: _172  and  _173
REMARK   72  A    between atoms: _172  and  _175
REMARK   73  A    between atoms: _175  and  _176
REMARK   74  A    between atoms: _181  and  _182
REMARK   75  A    between atoms: _184  and  _186
REMARK   76  A    between atoms: _186  and  _187
REMARK   77  A    between atoms: _186  and  _189
REMARK   78  A    between atoms: _192  and  _194
REMARK   79  A    between atoms: _194  and  _195
REMARK   80  A    between atoms: _194  and  _197
REMARK   81  A    between atoms: _197  and  _198
REMARK   82  A    between atoms: _198  and  _199
REMARK   83  A    between atoms: _204  and  _206
REMARK   84  A    between atoms: _206  and  _207
REMARK   85  A    between atoms: _210  and  _212
REMARK   86  A    between atoms: _212  and  _213
REMARK   87  A    between atoms: _212  and  _215
REMARK   88  A    between atoms: _215  and  _216
REMARK   89  A    between atoms: _219  and  _221
REMARK   90  A    between atoms: _221  and  _222
REMARK   91  A    between atoms: _221  and  _224
REMARK   92  A    between atoms: _227  and  _229
REMARK   93  A    between atoms: _229  and  _230
REMARK   94  A    between atoms: _229  and  _232
REMARK   95  A    between atoms: _232  and  _233
REMARK   96  A    between atoms: _243  and  _245
REMARK   97  A    between atoms: _245  and  _246
REMARK   98  A    between atoms: _248  and  _250
REMARK   99  A    between atoms: _250  and  _251
REMARK  100  A    between atoms: _250  and  _253
REMARK  101  A    between atoms: _253  and  _254
REMARK  102  A    between atoms: _259  and  _260
REMARK  103  A    between atoms: _262  and  _264
REMARK  104  A    between atoms: _264  and  _265
REMARK  105  A    between atoms: _264  and  _267
REMARK  106  A    between atoms: _267  and  _268
REMARK  107  A    between atoms: _268  and  _269
REMARK  108  A    between atoms: _269  and  _270
REMARK  109  A    between atoms: _270  and  _271
REMARK  110  A    between atoms: _275  and  _277
REMARK  111  A    between atoms: _277  and  _278
REMARK  112  A    between atoms: _277  and  _280
REMARK  113  A    between atoms: _280  and  _281
REMARK  114  A    between atoms: _284  and  _286
REMARK  115  A    between atoms: _286  and  _287
REMARK  116  A    between atoms: _286  and  _289
REMARK  117  A    between atoms: _289  and  _290
REMARK  118  A    between atoms: _293  and  _295
REMARK  119  A    between atoms: _295  and  _296
REMARK  120  A    between atoms: _295  and  _298
REMARK  121  A    between atoms: _298  and  _299
REMARK  122  A    between atoms: _299  and  _300
REMARK  123  A    between atoms: _300  and  _301
REMARK  124  A    between atoms: _301  and  _302
REMARK  125  A    between atoms: _306  and  _308
REMARK  126  A    between atoms: _308  and  _309
REMARK  127  A    between atoms: _308  and  _311
REMARK  128  A    between atoms: _311  and  _312
REMARK  129  A    between atoms: _315  and  _317
REMARK  130  A    between atoms: _317  and  _318
REMARK  131  A    between atoms: _317  and  _320
REMARK  132  A    between atoms: _320  and  _321
REMARK  133  A    between atoms: _321  and  _322
REMARK  134  A    between atoms: _327  and  _329
REMARK  135  A    between atoms: _329  and  _330
REMARK  136  A    between atoms: _329  and  _332
REMARK  137  A    between atoms: _332  and  _333
REMARK  138  A    between atoms: _336  and  _338
REMARK  139  A    between atoms: _338  and  _339
REMARK  140  A    between atoms: _338  and  _341
REMARK  141  A    between atoms: _341  and  _342
REMARK  142  A    between atoms: _347  and  _348
REMARK  143  A    between atoms: _350  and  _352
REMARK  144  A    between atoms: _352  and  _353
REMARK  145  A    between atoms: _352  and  _355
REMARK  146  A    between atoms: _355  and  _356
REMARK  147  A    between atoms: _359  and  _361
REMARK  148  A    between atoms: _361  and  _362
REMARK  149  A    between atoms: _361  and  _364
REMARK  150  A    between atoms: _366  and  _368
REMARK  151  A    between atoms: _368  and  _369
REMARK  152  A    between atoms: _372  and  _374
REMARK  153  A    between atoms: _374  and  _375
REMARK  154  A    between atoms: _374  and  _377
REMARK  155  A    between atoms: _377  and  _378
REMARK  156  A    between atoms: _378  and  _379
REMARK  157  A    between atoms: _379  and  _380
REMARK  158  A    between atoms: _380  and  _381
REMARK  159  A    between atoms: _385  and  _387
REMARK  160  A    between atoms: _387  and  _388
REMARK  161  A    between atoms: _387  and  _390
REMARK  162  A    between atoms: _390  and  _391
REMARK  163  A    between atoms: _394  and  _396
REMARK  164  A    between atoms: _396  and  _397
REMARK  165  A    between atoms: _400  and  _402
REMARK  166  A    between atoms: _402  and  _403
REMARK  167  A    between atoms: _402  and  _405
REMARK  168  A    between atoms: _405  and  _406
REMARK  169  A    between atoms: _406  and  _520
REMARK  170  A    between atoms: _407  and  _409
REMARK  171  A    between atoms: _409  and  _410
REMARK  172  A    between atoms: _409  and  _412
REMARK  173  A    between atoms: _412  and  _413
REMARK  174  A    between atoms: _413  and  _414
REMARK  175  A    between atoms: _414  and  _415
REMARK  176  A    between atoms: _415  and  _416
REMARK  177  A    between atoms: _420  and  _422
REMARK  178  A    between atoms: _422  and  _423
REMARK  179  A    between atoms: _425  and  _427
REMARK  180  A    between atoms: _427  and  _428
REMARK  181  A    between atoms: _427  and  _430
REMARK  182  A    between atoms: _430  and  _431
REMARK  183  A    between atoms: _434  and  _436
REMARK  184  A    between atoms: _436  and  _437
REMARK  185  A    between atoms: _436  and  _439
REMARK  186  A    between atoms: _439  and  _440
REMARK  187  A    between atoms: _442  and  _444
REMARK  188  A    between atoms: _444  and  _445
REMARK  189  A    between atoms: _447  and  _449
REMARK  190  A    between atoms: _449  and  _450
REMARK  191  A    between atoms: _452  and  _454
REMARK  192  A    between atoms: _454  and  _455
REMARK  193  A    between atoms: _454  and  _457
REMARK  194  A    between atoms: _457  and  _458
REMARK  195  A    between atoms: _461  and  _463
REMARK  196  A    between atoms: _463  and  _464
REMARK  197  A    between atoms: _463  and  _466
REMARK  198  A    between atoms: _466  and  _467
REMARK  199  A    between atoms: _470  and  _472
REMARK  200  A    between atoms: _472  and  _473
REMARK  201  A    between atoms: _472  and  _475
REMARK  202  A    between atoms: _475  and  _476
REMARK  203  A    between atoms: _478  and  _480
REMARK  204  A    between atoms: _480  and  _481
REMARK  205  A    between atoms: _480  and  _483
REMARK  206  A    between atoms: _483  and  _484
REMARK  207  A    between atoms: _494  and  _496
REMARK  208  A    between atoms: _496  and  _497
REMARK  209  A    between atoms: _499  and  _501
REMARK  210  A    between atoms: _501  and  _502
REMARK  211  A    between atoms: _501  and  _504
REMARK  212  A    between atoms: _504  and  _505
REMARK  213  A    between atoms: _505  and  _506
REMARK  214  A    between atoms: _509  and  _511
REMARK  215  A    between atoms: _511  and  _512
REMARK  216  A    between atoms: _514  and  _516
REMARK  217  A    between atoms: _516  and  _517
REMARK  218  A    between atoms: _516  and  _519
REMARK  219  A    between atoms: _519  and  _520
REMARK  220  A    between atoms: _521  and  _523
REMARK  221  A    between atoms: _523  and  _524
REMARK  222  A    between atoms: _527  and  _529
REMARK  223  A    between atoms: _529  and  _530
REMARK  224  A    between atoms: _529  and  _532
REMARK  225  A    between atoms: _532  and  _533
REMARK  226  A    between atoms: _533  and  _534
REMARK  227  A    between atoms: _539  and  _541
REMARK  228  A    between atoms: _541  and  _542
REMARK  229  A    between atoms: _541  and  _544
REMARK  230  A    between atoms: _544  and  _545
REMARK  231  A    between atoms: _545  and  _546
REMARK  232  A    between atoms: _546  and  _547
REMARK  233  A    between atoms: _557  and  _558
REMARK  234  A    between atoms: _563  and  _565
REMARK  235  A    between atoms: _565  and  _566
REMARK  236  A    between atoms: _568  and  _570
REMARK  237  A    between atoms: _570  and  _571
REMARK  238  A    between atoms: _570  and  _573
REMARK  239  A    between atoms: _576  and  _578
REMARK  240  A    between atoms: _578  and  _579
REMARK  241  A    between atoms: _578  and  _581
REMARK  242  A    between atoms: _581  and  _582
REMARK  243  A    between atoms: _587  and  _588
REMARK  244  A    between atoms: _590  and  _592
REMARK  245  A    between atoms: _592  and  _593
REMARK  246  A    between atoms: _592  and  _595
REMARK  247  A    between atoms: _595  and  _596
REMARK                            x       y       z     vdW  Elec       q    Type
REMARK                         _______ _______ _______ _____ _____    ______ ____
ROOT
ATOM      1  O   HOH     1      50.886 -18.999  32.455  0.00  0.00    +0.000 OA
ENDROOT
TORSDOF 0
REMARK  Name = ../refined-set-2016/4y8x/4y8x_pocket.pdb
REMARK  247 active torsions:
REMARK  status: ('A' for Active; 'I' for Inactive)
REMARK    1  A    between atoms: _1  and  _5
REMARK    2  A    between atoms: _5  and  _6
REMARK    3  A    between atoms: _5  and  _8
REMARK    4  A    between atoms: _8  and  _9
REMARK    5  A    between atoms: _12  and  _14
REMARK    6  A    between atoms: _14  and  _15
REMARK    7  A    between atoms: _14  and  _17
REMARK    8  A    between atoms: _20  and  _22
REMARK    9  A    between atoms: _22  and  _23
REMARK   10  A    between atoms: _22  and  _25
REMARK   11  A    between atoms: _25  and  _26
REMARK   12  A    between atoms: _29  and  _31
REMARK   13  A    between atoms: _31  and  _32
REMARK   14  A    between atoms: _31  and  _34
REMARK   15  A    between atoms: _34  and  _35
REMARK   16  A    between atoms: _38  and  _40
REMARK   17  A    between atoms: _40  and  _41
REMARK   18  A    between atoms: _40  and  _43
REMARK   19  A    between atoms: _43  and  _44
REMARK   20  A    between atoms: _49  and  _51
REMARK   21  A    between atoms: _51  and  _52
REMARK   22  A    between atoms: _51  and  _54
REMARK   23  A    between atoms: _54  and  _55
REMARK   24  A    between atoms: _58  and  _60
REMARK   25  A    between atoms: _60  and  _61
REMARK   26  A    between atoms: _60  and  _63
REMARK   27  A    between atoms: _63  and  _64
REMARK   28  A    between atoms: _67  and  _69
REMARK   29  A    between atoms: _69  and  _70
REMARK   30  A    between atoms: _69  and  _72
REMARK   31  A    between atoms: _72  and  _73
REMARK   32  A    between atoms: _73  and  _74
REMARK   33  A    between atoms: _79  and  _81
REMARK   34  A    between atoms: _81  and  _82
REMARK   35  A    between atoms: _81  and  _84
REMARK   36  A    between atoms: _84  and  _85
REMARK   37  A    between atoms: _85  and  _86
REMARK   38  A    between atoms: _86  and  _87
REMARK   39  A    between atoms: _96  and  _98
REMARK   40  A    between atoms: _98  and  _99
REMARK   41  A    between atoms: _98  and  _101
REMARK   42  A    between atoms: _101  and  _102
REMARK   43  A    between atoms: _107  and  _109
REMARK   44  A    between atoms: _109  and  _110
REMARK   45  A    between atoms: _109  and  _112
REMARK   46  A    between atoms: _112  and  _113
REMARK   47  A    between atoms: _116  and  _118
REMARK   48  A    between atoms: _118  and  _119
REMARK   49  A    between atoms: _118  and  _121
REMARK   50  A    between atoms: _121  and  _122
REMARK   51  A    between atoms: _122  and  _157
REMARK   52  A    between atoms: _123  and  _125
REMARK   53  A    between atoms: _125  and  _126
REMARK   54  A    between atoms: _128  and  _130
REMARK   55  A    between atoms: _130  and  _131
REMARK   56  A    between atoms: _134  and  _136
REMARK   57  A    between atoms: _136  and  _137
REMARK   58  A    between atoms: _140  and  _142
REMARK   59  A    between atoms: _142  and  _143
REMARK   60  A    between atoms: _142  and  _145
REMARK   61  A    between atoms: _145  and  _146
REMARK   62  A    between atoms: _151  and  _153
REMARK   63  A    between atoms: _153  and  _154
REMARK   64  A    between atoms: _153  and  _156
REMARK   65  A    between atoms: _156  and  _157
REMARK   66  A    between atoms: _158  and  _160
REMARK   67  A    between atoms: _160  and  _161
REMARK   68  A    between atoms: _160  and  _163
REMARK   69  A    between atoms: _163  and  _164
REMARK   70  A    between atoms: _170  and  _172
REMARK   71  A    between atoms: _172  and  _173
REMARK   72  A    between atoms: _172  and  _175
REMARK   73  A    between atoms: _175  and  _176
REMARK   74  A    between atoms: _181  and  _182
REMARK   75  A    between atoms: _184  and  _186
REMARK   76  A    between atoms: _186  and  _187
REMARK   77  A    between atoms: _186  and  _189
REMARK   78  A    between atoms: _192  and  _194
REMARK   79  A    between atoms: _194  and  _195
REMARK   80  A    between atoms: _194  and  _197
REMARK   81  A    between atoms: _197  and  _198
REMARK   82  A    between atoms: _198  and  _199
REMARK   83  A    between atoms: _204  and  _206
REMARK   84  A    between atoms: _206  and  _207
REMARK   85  A    between atoms: _210  and  _212
REMARK   86  A    between atoms: _212  and  _213
REMARK   87  A    between atoms: _212  and  _215
REMARK   88  A    between atoms: _215  and  _216
REMARK   89  A    between atoms: _219  and  _221
REMARK   90  A    between atoms: _221  and  _222
REMARK   91  A    between atoms: _221  and  _224
REMARK   92  A    between atoms: _227  and  _229
REMARK   93  A    between atoms: _229  and  _230
REMARK   94  A    between atoms: _229  and  _232
REMARK   95  A    between atoms: _232  and  _233
REMARK   96  A    between atoms: _243  and  _245
REMARK   97  A    between atoms: _245  and  _246
REMARK   98  A    between atoms: _248  and  _250
REMARK   99  A    between atoms: _250  and  _251
REMARK  100  A    between atoms: _250  and  _253
REMARK  101  A    between atoms: _253  and  _254
REMARK  102  A    between atoms: _259  and  _260
REMARK  103  A    between atoms: _262  and  _264
REMARK  104  A    between atoms: _264  and  _265
REMARK  105  A    between atoms: _264  and  _267
REMARK  106  A    between atoms: _267  and  _268
REMARK  107  A    between atoms: _268  and  _269
REMARK  108  A    between atoms: _269  and  _270
REMARK  109  A    between atoms: _270  and  _271
REMARK  110  A    between atoms: _275  and  _277
REMARK  111  A    between atoms: _277  and  _278
REMARK  112  A    between atoms: _277  and  _280
REMARK  113  A    between atoms: _280  and  _281
REMARK  114  A    between atoms: _284  and  _286
REMARK  115  A    between atoms: _286  and  _287
REMARK  116  A    between atoms: _286  and  _289
REMARK  117  A    between atoms: _289  and  _290
REMARK  118  A    between atoms: _293  and  _295
REMARK  119  A    between atoms: _295  and  _296
REMARK  120  A    between atoms: _295  and  _298
REMARK  121  A    between atoms: _298  and  _299
REMARK  122  A    between atoms: _299  and  _300
REMARK  123  A    between atoms: _300  and  _301
REMARK  124  A    between atoms: _301  and  _302
REMARK  125  A    between atoms: _306  and  _308
REMARK  126  A    between atoms: _308  and  _309
REMARK  127  A    between atoms: _308  and  _311
REMARK  128  A    between atoms: _311  and  _312
REMARK  129  A    between atoms: _315  and  _317
REMARK  130  A    between atoms: _317  and  _318
REMARK  131  A    between atoms: _317  and  _320
REMARK  132  A    between atoms: _320  and  _321
REMARK  133  A    between atoms: _321  and  _322
REMARK  134  A    between atoms: _327  and  _329
REMARK  135  A    between atoms: _329  and  _330
REMARK  136  A    between atoms: _329  and  _332
REMARK  137  A    between atoms: _332  and  _333
REMARK  138  A    between atoms: _336  and  _338
REMARK  139  A    between atoms: _338  and  _339
REMARK  140  A    between atoms: _338  and  _341
REMARK  141  A    between atoms: _341  and  _342
REMARK  142  A    between atoms: _347  and  _348
REMARK  143  A    between atoms: _350  and  _352
REMARK  144  A    between atoms: _352  and  _353
REMARK  145  A    between atoms: _352  and  _355
REMARK  146  A    between atoms: _355  and  _356
REMARK  147  A    between atoms: _359  and  _361
REMARK  148  A    between atoms: _361  and  _362
REMARK  149  A    between atoms: _361  and  _364
REMARK  150  A    between atoms: _366  and  _368
REMARK  151  A    between atoms: _368  and  _369
REMARK  152  A    between atoms: _372  and  _374
REMARK  153  A    between atoms: _374  and  _375
REMARK  154  A    between atoms: _374  and  _377
REMARK  155  A    between atoms: _377  and  _378
REMARK  156  A    between atoms: _378  and  _379
REMARK  157  A    between atoms: _379  and  _380
REMARK  158  A    between atoms: _380  and  _381
REMARK  159  A    between atoms: _385  and  _387
REMARK  160  A    between atoms: _387  and  _388
REMARK  161  A    between atoms: _387  and  _390
REMARK  162  A    between atoms: _390  and  _391
REMARK  163  A    between atoms: _394  and  _396
REMARK  164  A    between atoms: _396  and  _397
REMARK  165  A    between atoms: _400  and  _402
REMARK  166  A    between atoms: _402  and  _403
REMARK  167  A    between atoms: _402  and  _405
REMARK  168  A    between atoms: _405  and  _406
REMARK  169  A    between atoms: _406  and  _520
REMARK  170  A    between atoms: _407  and  _409
REMARK  171  A    between atoms: _409  and  _410
REMARK  172  A    between atoms: _409  and  _412
REMARK  173  A    between atoms: _412  and  _413
REMARK  174  A    between atoms: _413  and  _414
REMARK  175  A    between atoms: _414  and  _415
REMARK  176  A    between atoms: _415  and  _416
REMARK  177  A    between atoms: _420  and  _422
REMARK  178  A    between atoms: _422  and  _423
REMARK  179  A    between atoms: _425  and  _427
REMARK  180  A    between atoms: _427  and  _428
REMARK  181  A    between atoms: _427  and  _430
REMARK  182  A    between atoms: _430  and  _431
REMARK  183  A    between atoms: _434  and  _436
REMARK  184  A    between atoms: _436  and  _437
REMARK  185  A    between atoms: _436  and  _439
REMARK  186  A    between atoms: _439  and  _440
REMARK  187  A    between atoms: _442  and  _444
REMARK  188  A    between atoms: _444  and  _445
REMARK  189  A    between atoms: _447  and  _449
REMARK  190  A    between atoms: _449  and  _450
REMARK  191  A    between atoms: _452  and  _454
REMARK  192  A    between atoms: _454  and  _455
REMARK  193  A    between atoms: _454  and  _457
REMARK  194  A    between atoms: _457  and  _458
REMARK  195  A    between atoms: _461  and  _463
REMARK  196  A    between atoms: _463  and  _464
REMARK  197  A    between atoms: _463  and  _466
REMARK  198  A    between atoms: _466  and  _467
REMARK  199  A    between atoms: _470  and  _472
REMARK  200  A    between atoms: _472  and  _473
REMARK  201  A    between atoms: _472  and  _475
REMARK  202  A    between atoms: _475  and  _476
REMARK  203  A    between atoms: _478  and  _480
REMARK  204  A    between atoms: _480  and  _481
REMARK  205  A    between atoms: _480  and  _483
REMARK  206  A    between atoms: _483  and  _484
REMARK  207  A    between atoms: _494  and  _496
REMARK  208  A    between atoms: _496  and  _497
REMARK  209  A    between atoms: _499  and  _501
REMARK  210  A    between atoms: _501  and  _502
REMARK  211  A    between atoms: _501  and  _504
REMARK  212  A    between atoms: _504  and  _505
REMARK  213  A    between atoms: _505  and  _506
REMARK  214  A    between atoms: _509  and  _511
REMARK  215  A    between atoms: _511  and  _512
REMARK  216  A    between atoms: _514  and  _516
REMARK  217  A    between atoms: _516  and  _517
REMARK  218  A    between atoms: _516  and  _519
REMARK  219  A    between atoms: _519  and  _520
REMARK  220  A    between atoms: _521  and  _523
REMARK  221  A    between atoms: _523  and  _524
REMARK  222  A    between atoms: _527  and  _529
REMARK  223  A    between atoms: _529  and  _530
REMARK  224  A    between atoms: _529  and  _532
REMARK  225  A    between atoms: _532  and  _533
REMARK  226  A    between atoms: _533  and  _534
REMARK  227  A    between atoms: _539  and  _541
REMARK  228  A    between atoms: _541  and  _542
REMARK  229  A    between atoms: _541  and  _544
REMARK  230  A    between atoms: _544  and  _545
REMARK  231  A    between atoms: _545  and  _546
REMARK  232  A    between atoms: _546  and  _547
REMARK  233  A    between atoms: _557  and  _558
REMARK  234  A    between atoms: _563  and  _565
REMARK  235  A    between atoms: _565  and  _566
REMARK  236  A    between atoms: _568  and  _570
REMARK  237  A    between atoms: _570  and  _571
REMARK  238  A    between atoms: _570  and  _573
REMARK  239  A    between atoms: _576  and  _578
REMARK  240  A    between atoms: _578  and  _579
REMARK  241  A    between atoms: _578  and  _581
REMARK  242  A    between atoms: _581  and  _582
REMARK  243  A    between atoms: _587  and  _588
REMARK  244  A    between atoms: _590  and  _592
REMARK  245  A    between atoms: _592  and  _593
REMARK  246  A    between atoms: _592  and  _595
REMARK  247  A    between atoms: _595  and  _596
REMARK                            x       y       z     vdW  Elec       q    Type
REMARK                         _______ _______ _______ _____ _____    ______ ____
ROOT
ATOM      1  O   HOH     1      36.498 -19.732  26.633  0.00  0.00    +0.000 OA
ENDROOT
TORSDOF 0
REMARK  Name = ../refined-set-2016/4y8x/4y8x_pocket.pdb
REMARK  247 active torsions:
REMARK  status: ('A' for Active; 'I' for Inactive)
REMARK    1  A    between atoms: _1  and  _5
REMARK    2  A    between atoms: _5  and  _6
REMARK    3  A    between atoms: _5  and  _8
REMARK    4  A    between atoms: _8  and  _9
REMARK    5  A    between atoms: _12  and  _14
REMARK    6  A    between atoms: _14  and  _15
REMARK    7  A    between atoms: _14  and  _17
REMARK    8  A    between atoms: _20  and  _22
REMARK    9  A    between atoms: _22  and  _23
REMARK   10  A    between atoms: _22  and  _25
REMARK   11  A    between atoms: _25  and  _26
REMARK   12  A    between atoms: _29  and  _31
REMARK   13  A    between atoms: _31  and  _32
REMARK   14  A    between atoms: _31  and  _34
REMARK   15  A    between atoms: _34  and  _35
REMARK   16  A    between atoms: _38  and  _40
REMARK   17  A    between atoms: _40  and  _41
REMARK   18  A    between atoms: _40  and  _43
REMARK   19  A    between atoms: _43  and  _44
REMARK   20  A    between atoms: _49  and  _51
REMARK   21  A    between atoms: _51  and  _52
REMARK   22  A    between atoms: _51  and  _54
REMARK   23  A    between atoms: _54  and  _55
REMARK   24  A    between atoms: _58  and  _60
REMARK   25  A    between atoms: _60  and  _61
REMARK   26  A    between atoms: _60  and  _63
REMARK   27  A    between atoms: _63  and  _64
REMARK   28  A    between atoms: _67  and  _69
REMARK   29  A    between atoms: _69  and  _70
REMARK   30  A    between atoms: _69  and  _72
REMARK   31  A    between atoms: _72  and  _73
REMARK   32  A    between atoms: _73  and  _74
REMARK   33  A    between atoms: _79  and  _81
REMARK   34  A    between atoms: _81  and  _82
REMARK   35  A    between atoms: _81  and  _84
REMARK   36  A    between atoms: _84  and  _85
REMARK   37  A    between atoms: _85  and  _86
REMARK   38  A    between atoms: _86  and  _87
REMARK   39  A    between atoms: _96  and  _98
REMARK   40  A    between atoms: _98  and  _99
REMARK   41  A    between atoms: _98  and  _101
REMARK   42  A    between atoms: _101  and  _102
REMARK   43  A    between atoms: _107  and  _109
REMARK   44  A    between atoms: _109  and  _110
REMARK   45  A    between atoms: _109  and  _112
REMARK   46  A    between atoms: _112  and  _113
REMARK   47  A    between atoms: _116  and  _118
REMARK   48  A    between atoms: _118  and  _119
REMARK   49  A    between atoms: _118  and  _121
REMARK   50  A    between atoms: _121  and  _122
REMARK   51  A    between atoms: _122  and  _157
REMARK   52  A    between atoms: _123  and  _125
REMARK   53  A    between atoms: _125  and  _126
REMARK   54  A    between atoms: _128  and  _130
REMARK   55  A    between atoms: _130  and  _131
REMARK   56  A    between atoms: _134  and  _136
REMARK   57  A    between atoms: _136  and  _137
REMARK   58  A    between atoms: _140  and  _142
REMARK   59  A    between atoms: _142  and  _143
REMARK   60  A    between atoms: _142  and  _145
REMARK   61  A    between atoms: _145  and  _146
REMARK   62  A    between atoms: _151  and  _153
REMARK   63  A    between atoms: _153  and  _154
REMARK   64  A    between atoms: _153  and  _156
REMARK   65  A    between atoms: _156  and  _157
REMARK   66  A    between atoms: _158  and  _160
REMARK   67  A    between atoms: _160  and  _161
REMARK   68  A    between atoms: _160  and  _163
REMARK   69  A    between atoms: _163  and  _164
REMARK   70  A    between atoms: _170  and  _172
REMARK   71  A    between atoms: _172  and  _173
REMARK   72  A    between atoms: _172  and  _175
REMARK   73  A    between atoms: _175  and  _176
REMARK   74  A    between atoms: _181  and  _182
REMARK   75  A    between atoms: _184  and  _186
REMARK   76  A    between atoms: _186  and  _187
REMARK   77  A    between atoms: _186  and  _189
REMARK   78  A    between atoms: _192  and  _194
REMARK   79  A    between atoms: _194  and  _195
REMARK   80  A    between atoms: _194  and  _197
REMARK   81  A    between atoms: _197  and  _198
REMARK   82  A    between atoms: _198  and  _199
REMARK   83  A    between atoms: _204  and  _206
REMARK   84  A    between atoms: _206  and  _207
REMARK   85  A    between atoms: _210  and  _212
REMARK   86  A    between atoms: _212  and  _213
REMARK   87  A    between atoms: _212  and  _215
REMARK   88  A    between atoms: _215  and  _216
REMARK   89  A    between atoms: _219  and  _221
REMARK   90  A    between atoms: _221  and  _222
REMARK   91  A    between atoms: _221  and  _224
REMARK   92  A    between atoms: _227  and  _229
REMARK   93  A    between atoms: _229  and  _230
REMARK   94  A    between atoms: _229  and  _232
REMARK   95  A    between atoms: _232  and  _233
REMARK   96  A    between atoms: _243  and  _245
REMARK   97  A    between atoms: _245  and  _246
REMARK   98  A    between atoms: _248  and  _250
REMARK   99  A    between atoms: _250  and  _251
REMARK  100  A    between atoms: _250  and  _253
REMARK  101  A    between atoms: _253  and  _254
REMARK  102  A    between atoms: _259  and  _260
REMARK  103  A    between atoms: _262  and  _264
REMARK  104  A    between atoms: _264  and  _265
REMARK  105  A    between atoms: _264  and  _267
REMARK  106  A    between atoms: _267  and  _268
REMARK  107  A    between atoms: _268  and  _269
REMARK  108  A    between atoms: _269  and  _270
REMARK  109  A    between atoms: _270  and  _271
REMARK  110  A    between atoms: _275  and  _277
REMARK  111  A    between atoms: _277  and  _278
REMARK  112  A    between atoms: _277  and  _280
REMARK  113  A    between atoms: _280  and  _281
REMARK  114  A    between atoms: _284  and  _286
REMARK  115  A    between atoms: _286  and  _287
REMARK  116  A    between atoms: _286  and  _289
REMARK  117  A    between atoms: _289  and  _290
REMARK  118  A    between atoms: _293  and  _295
REMARK  119  A    between atoms: _295  and  _296
REMARK  120  A    between atoms: _295  and  _298
REMARK  121  A    between atoms: _298  and  _299
REMARK  122  A    between atoms: _299  and  _300
REMARK  123  A    between atoms: _300  and  _301
REMARK  124  A    between atoms: _301  and  _302
REMARK  125  A    between atoms: _306  and  _308
REMARK  126  A    between atoms: _308  and  _309
REMARK  127  A    between atoms: _308  and  _311
REMARK  128  A    between atoms: _311  and  _312
REMARK  129  A    between atoms: _315  and  _317
REMARK  130  A    between atoms: _317  and  _318
REMARK  131  A    between atoms: _317  and  _320
REMARK  132  A    between atoms: _320  and  _321
REMARK  133  A    between atoms: _321  and  _322
REMARK  134  A    between atoms: _327  and  _329
REMARK  135  A    between atoms: _329  and  _330
REMARK  136  A    between atoms: _329  and  _332
REMARK  137  A    between atoms: _332  and  _333
REMARK  138  A    between atoms: _336  and  _338
REMARK  139  A    between atoms: _338  and  _339
REMARK  140  A    between atoms: _338  and  _341
REMARK  141  A    between atoms: _341  and  _342
REMARK  142  A    between atoms: _347  and  _348
REMARK  143  A    between atoms: _350  and  _352
REMARK  144  A    between atoms: _352  and  _353
REMARK  145  A    between atoms: _352  and  _355
REMARK  146  A    between atoms: _355  and  _356
REMARK  147  A    between atoms: _359  and  _361
REMARK  148  A    between atoms: _361  and  _362
REMARK  149  A    between atoms: _361  and  _364
REMARK  150  A    between atoms: _366  and  _368
REMARK  151  A    between atoms: _368  and  _369
REMARK  152  A    between atoms: _372  and  _374
REMARK  153  A    between atoms: _374  and  _375
REMARK  154  A    between atoms: _374  and  _377
REMARK  155  A    between atoms: _377  and  _378
REMARK  156  A    between atoms: _378  and  _379
REMARK  157  A    between atoms: _379  and  _380
REMARK  158  A    between atoms: _380  and  _381
REMARK  159  A    between atoms: _385  and  _387
REMARK  160  A    between atoms: _387  and  _388
REMARK  161  A    between atoms: _387  and  _390
REMARK  162  A    between atoms: _390  and  _391
REMARK  163  A    between atoms: _394  and  _396
REMARK  164  A    between atoms: _396  and  _397
REMARK  165  A    between atoms: _400  and  _402
REMARK  166  A    between atoms: _402  and  _403
REMARK  167  A    between atoms: _402  and  _405
REMARK  168  A    between atoms: _405  and  _406
REMARK  169  A    between atoms: _406  and  _520
REMARK  170  A    between atoms: _407  and  _409
REMARK  171  A    between atoms: _409  and  _410
REMARK  172  A    between atoms: _409  and  _412
REMARK  173  A    between atoms: _412  and  _413
REMARK  174  A    between atoms: _413  and  _414
REMARK  175  A    between atoms: _414  and  _415
REMARK  176  A    between atoms: _415  and  _416
REMARK  177  A    between atoms: _420  and  _422
REMARK  178  A    between atoms: _422  and  _423
REMARK  179  A    between atoms: _425  and  _427
REMARK  180  A    between atoms: _427  and  _428
REMARK  181  A    between atoms: _427  and  _430
REMARK  182  A    between atoms: _430  and  _431
REMARK  183  A    between atoms: _434  and  _436
REMARK  184  A    between atoms: _436  and  _437
REMARK  185  A    between atoms: _436  and  _439
REMARK  186  A    between atoms: _439  and  _440
REMARK  187  A    between atoms: _442  and  _444
REMARK  188  A    between atoms: _444  and  _445
REMARK  189  A    between atoms: _447  and  _449
REMARK  190  A    between atoms: _449  and  _450
REMARK  191  A    between atoms: _452  and  _454
REMARK  192  A    between atoms: _454  and  _455
REMARK  193  A    between atoms: _454  and  _457
REMARK  194  A    between atoms: _457  and  _458
REMARK  195  A    between atoms: _461  and  _463
REMARK  196  A    between atoms: _463  and  _464
REMARK  197  A    between atoms: _463  and  _466
REMARK  198  A    between atoms: _466  and  _467
REMARK  199  A    between atoms: _470  and  _472
REMARK  200  A    between atoms: _472  and  _473
REMARK  201  A    between atoms: _472  and  _475
REMARK  202  A    between atoms: _475  and  _476
REMARK  203  A    between atoms: _478  and  _480
REMARK  204  A    between atoms: _480  and  _481
REMARK  205  A    between atoms: _480  and  _483
REMARK  206  A    between atoms: _483  and  _484
REMARK  207  A    between atoms: _494  and  _496
REMARK  208  A    between atoms: _496  and  _497
REMARK  209  A    between atoms: _499  and  _501
REMARK  210  A    between atoms: _501  and  _502
REMARK  211  A    between atoms: _501  and  _504
REMARK  212  A    between atoms: _504  and  _505
REMARK  213  A    between atoms: _505  and  _506
REMARK  214  A    between atoms: _509  and  _511
REMARK  215  A    between atoms: _511  and  _512
REMARK  216  A    between atoms: _514  and  _516
REMARK  217  A    between atoms: _516  and  _517
REMARK  218  A    between atoms: _516  and  _519
REMARK  219  A    between atoms: _519  and  _520
REMARK  220  A    between atoms: _521  and  _523
REMARK  221  A    between atoms: _523  and  _524
REMARK  222  A    between atoms: _527  and  _529
REMARK  223  A    between atoms: _529  and  _530
REMARK  224  A    between atoms: _529  and  _532
REMARK  225  A    between atoms: _532  and  _533
REMARK  226  A    between atoms: _533  and  _534
REMARK  227  A    between atoms: _539  and  _541
REMARK  228  A    between atoms: _541  and  _542
REMARK  229  A    between atoms: _541  and  _544
REMARK  230  A    between atoms: _544  and  _545
REMARK  231  A    between atoms: _545  and  _546
REMARK  232  A    between atoms: _546  and  _547
REMARK  233  A    between atoms: _557  and  _558
REMARK  234  A    between atoms: _563  and  _565
REMARK  235  A    between atoms: _565  and  _566
REMARK  236  A    between atoms: _568  and  _570
REMARK  237  A    between atoms: _570  and  _571
REMARK  238  A    between atoms: _570  and  _573
REMARK  239  A    between atoms: _576  and  _578
REMARK  240  A    between atoms: _578  and  _579
REMARK  241  A    between atoms: _578  and  _581
REMARK  242  A    between atoms: _581  and  _582
REMARK  243  A    between atoms: _587  and  _588
REMARK  244  A    between atoms: _590  and  _592
REMARK  245  A    between atoms: _592  and  _593
REMARK  246  A    between atoms: _592  and  _595
REMARK  247  A    between atoms: _595  and  _596
REMARK                            x       y       z     vdW  Elec       q    Type
REMARK                         _______ _______ _______ _____ _____    ______ ____
ROOT
ATOM      1  O   HOH     1      34.945 -10.857  25.449  0.00  0.00    +0.000 OA
ENDROOT
TORSDOF 0
REMARK  Name = ../refined-set-2016/4y8x/4y8x_pocket.pdb
REMARK  247 active torsions:
REMARK  status: ('A' for Active; 'I' for Inactive)
REMARK    1  A    between atoms: _1  and  _5
REMARK    2  A    between atoms: _5  and  _6
REMARK    3  A    between atoms: _5  and  _8
REMARK    4  A    between atoms: _8  and  _9
REMARK    5  A    between atoms: _12  and  _14
REMARK    6  A    between atoms: _14  and  _15
REMARK    7  A    between atoms: _14  and  _17
REMARK    8  A    between atoms: _20  and  _22
REMARK    9  A    between atoms: _22  and  _23
REMARK   10  A    between atoms: _22  and  _25
REMARK   11  A    between atoms: _25  and  _26
REMARK   12  A    between atoms: _29  and  _31
REMARK   13  A    between atoms: _31  and  _32
REMARK   14  A    between atoms: _31  and  _34
REMARK   15  A    between atoms: _34  and  _35
REMARK   16  A    between atoms: _38  and  _40
REMARK   17  A    between atoms: _40  and  _41
REMARK   18  A    between atoms: _40  and  _43
REMARK   19  A    between atoms: _43  and  _44
REMARK   20  A    between atoms: _49  and  _51
REMARK   21  A    between atoms: _51  and  _52
REMARK   22  A    between atoms: _51  and  _54
REMARK   23  A    between atoms: _54  and  _55
REMARK   24  A    between atoms: _58  and  _60
REMARK   25  A    between atoms: _60  and  _61
REMARK   26  A    between atoms: _60  and  _63
REMARK   27  A    between atoms: _63  and  _64
REMARK   28  A    between atoms: _67  and  _69
REMARK   29  A    between atoms: _69  and  _70
REMARK   30  A    between atoms: _69  and  _72
REMARK   31  A    between atoms: _72  and  _73
REMARK   32  A    between atoms: _73  and  _74
REMARK   33  A    between atoms: _79  and  _81
REMARK   34  A    between atoms: _81  and  _82
REMARK   35  A    between atoms: _81  and  _84
REMARK   36  A    between atoms: _84  and  _85
REMARK   37  A    between atoms: _85  and  _86
REMARK   38  A    between atoms: _86  and  _87
REMARK   39  A    between atoms: _96  and  _98
REMARK   40  A    between atoms: _98  and  _99
REMARK   41  A    between atoms: _98  and  _101
REMARK   42  A    between atoms: _101  and  _102
REMARK   43  A    between atoms: _107  and  _109
REMARK   44  A    between atoms: _109  and  _110
REMARK   45  A    between atoms: _109  and  _112
REMARK   46  A    between atoms: _112  and  _113
REMARK   47  A    between atoms: _116  and  _118
REMARK   48  A    between atoms: _118  and  _119
REMARK   49  A    between atoms: _118  and  _121
REMARK   50  A    between atoms: _121  and  _122
REMARK   51  A    between atoms: _122  and  _157
REMARK   52  A    between atoms: _123  and  _125
REMARK   53  A    between atoms: _125  and  _126
REMARK   54  A    between atoms: _128  and  _130
REMARK   55  A    between atoms: _130  and  _131
REMARK   56  A    between atoms: _134  and  _136
REMARK   57  A    between atoms: _136  and  _137
REMARK   58  A    between atoms: _140  and  _142
REMARK   59  A    between atoms: _142  and  _143
REMARK   60  A    between atoms: _142  and  _145
REMARK   61  A    between atoms: _145  and  _146
REMARK   62  A    between atoms: _151  and  _153
REMARK   63  A    between atoms: _153  and  _154
REMARK   64  A    between atoms: _153  and  _156
REMARK   65  A    between atoms: _156  and  _157
REMARK   66  A    between atoms: _158  and  _160
REMARK   67  A    between atoms: _160  and  _161
REMARK   68  A    between atoms: _160  and  _163
REMARK   69  A    between atoms: _163  and  _164
REMARK   70  A    between atoms: _170  and  _172
REMARK   71  A    between atoms: _172  and  _173
REMARK   72  A    between atoms: _172  and  _175
REMARK   73  A    between atoms: _175  and  _176
REMARK   74  A    between atoms: _181  and  _182
REMARK   75  A    between atoms: _184  and  _186
REMARK   76  A    between atoms: _186  and  _187
REMARK   77  A    between atoms: _186  and  _189
REMARK   78  A    between atoms: _192  and  _194
REMARK   79  A    between atoms: _194  and  _195
REMARK   80  A    between atoms: _194  and  _197
REMARK   81  A    between atoms: _197  and  _198
REMARK   82  A    between atoms: _198  and  _199
REMARK   83  A    between atoms: _204  and  _206
REMARK   84  A    between atoms: _206  and  _207
REMARK   85  A    between atoms: _210  and  _212
REMARK   86  A    between atoms: _212  and  _213
REMARK   87  A    between atoms: _212  and  _215
REMARK   88  A    between atoms: _215  and  _216
REMARK   89  A    between atoms: _219  and  _221
REMARK   90  A    between atoms: _221  and  _222
REMARK   91  A    between atoms: _221  and  _224
REMARK   92  A    between atoms: _227  and  _229
REMARK   93  A    between atoms: _229  and  _230
REMARK   94  A    between atoms: _229  and  _232
REMARK   95  A    between atoms: _232  and  _233
REMARK   96  A    between atoms: _243  and  _245
REMARK   97  A    between atoms: _245  and  _246
REMARK   98  A    between atoms: _248  and  _250
REMARK   99  A    between atoms: _250  and  _251
REMARK  100  A    between atoms: _250  and  _253
REMARK  101  A    between atoms: _253  and  _254
REMARK  102  A    between atoms: _259  and  _260
REMARK  103  A    between atoms: _262  and  _264
REMARK  104  A    between atoms: _264  and  _265
REMARK  105  A    between atoms: _264  and  _267
REMARK  106  A    between atoms: _267  and  _268
REMARK  107  A    between atoms: _268  and  _269
REMARK  108  A    between atoms: _269  and  _270
REMARK  109  A    between atoms: _270  and  _271
REMARK  110  A    between atoms: _275  and  _277
REMARK  111  A    between atoms: _277  and  _278
REMARK  112  A    between atoms: _277  and  _280
REMARK  113  A    between atoms: _280  and  _281
REMARK  114  A    between atoms: _284  and  _286
REMARK  115  A    between atoms: _286  and  _287
REMARK  116  A    between atoms: _286  and  _289
REMARK  117  A    between atoms: _289  and  _290
REMARK  118  A    between atoms: _293  and  _295
REMARK  119  A    between atoms: _295  and  _296
REMARK  120  A    between atoms: _295  and  _298
REMARK  121  A    between atoms: _298  and  _299
REMARK  122  A    between atoms: _299  and  _300
REMARK  123  A    between atoms: _300  and  _301
REMARK  124  A    between atoms: _301  and  _302
REMARK  125  A    between atoms: _306  and  _308
REMARK  126  A    between atoms: _308  and  _309
REMARK  127  A    between atoms: _308  and  _311
REMARK  128  A    between atoms: _311  and  _312
REMARK  129  A    between atoms: _315  and  _317
REMARK  130  A    between atoms: _317  and  _318
REMARK  131  A    between atoms: _317  and  _320
REMARK  132  A    between atoms: _320  and  _321
REMARK  133  A    between atoms: _321  and  _322
REMARK  134  A    between atoms: _327  and  _329
REMARK  135  A    between atoms: _329  and  _330
REMARK  136  A    between atoms: _329  and  _332
REMARK  137  A    between atoms: _332  and  _333
REMARK  138  A    between atoms: _336  and  _338
REMARK  139  A    between atoms: _338  and  _339
REMARK  140  A    between atoms: _338  and  _341
REMARK  141  A    between atoms: _341  and  _342
REMARK  142  A    between atoms: _347  and  _348
REMARK  143  A    between atoms: _350  and  _352
REMARK  144  A    between atoms: _352  and  _353
REMARK  145  A    between atoms: _352  and  _355
REMARK  146  A    between atoms: _355  and  _356
REMARK  147  A    between atoms: _359  and  _361
REMARK  148  A    between atoms: _361  and  _362
REMARK  149  A    between atoms: _361  and  _364
REMARK  150  A    between atoms: _366  and  _368
REMARK  151  A    between atoms: _368  and  _369
REMARK  152  A    between atoms: _372  and  _374
REMARK  153  A    between atoms: _374  and  _375
REMARK  154  A    between atoms: _374  and  _377
REMARK  155  A    between atoms: _377  and  _378
REMARK  156  A    between atoms: _378  and  _379
REMARK  157  A    between atoms: _379  and  _380
REMARK  158  A    between atoms: _380  and  _381
REMARK  159  A    between atoms: _385  and  _387
REMARK  160  A    between atoms: _387  and  _388
REMARK  161  A    between atoms: _387  and  _390
REMARK  162  A    between atoms: _390  and  _391
REMARK  163  A    between atoms: _394  and  _396
REMARK  164  A    between atoms: _396  and  _397
REMARK  165  A    between atoms: _400  and  _402
REMARK  166  A    between atoms: _402  and  _403
REMARK  167  A    between atoms: _402  and  _405
REMARK  168  A    between atoms: _405  and  _406
REMARK  169  A    between atoms: _406  and  _520
REMARK  170  A    between atoms: _407  and  _409
REMARK  171  A    between atoms: _409  and  _410
REMARK  172  A    between atoms: _409  and  _412
REMARK  173  A    between atoms: _412  and  _413
REMARK  174  A    between atoms: _413  and  _414
REMARK  175  A    between atoms: _414  and  _415
REMARK  176  A    between atoms: _415  and  _416
REMARK  177  A    between atoms: _420  and  _422
REMARK  178  A    between atoms: _422  and  _423
REMARK  179  A    between atoms: _425  and  _427
REMARK  180  A    between atoms: _427  and  _428
REMARK  181  A    between atoms: _427  and  _430
REMARK  182  A    between atoms: _430  and  _431
REMARK  183  A    between atoms: _434  and  _436
REMARK  184  A    between atoms: _436  and  _437
REMARK  185  A    between atoms: _436  and  _439
REMARK  186  A    between atoms: _439  and  _440
REMARK  187  A    between atoms: _442  and  _444
REMARK  188  A    between atoms: _444  and  _445
REMARK  189  A    between atoms: _447  and  _449
REMARK  190  A    between atoms: _449  and  _450
REMARK  191  A    between atoms: _452  and  _454
REMARK  192  A    between atoms: _454  and  _455
REMARK  193  A    between atoms: _454  and  _457
REMARK  194  A    between atoms: _457  and  _458
REMARK  195  A    between atoms: _461  and  _463
REMARK  196  A    between atoms: _463  and  _464
REMARK  197  A    between atoms: _463  and  _466
REMARK  198  A    between atoms: _466  and  _467
REMARK  199  A    between atoms: _470  and  _472
REMARK  200  A    between atoms: _472  and  _473
REMARK  201  A    between atoms: _472  and  _475
REMARK  202  A    between atoms: _475  and  _476
REMARK  203  A    between atoms: _478  and  _480
REMARK  204  A    between atoms: _480  and  _481
REMARK  205  A    between atoms: _480  and  _483
REMARK  206  A    between atoms: _483  and  _484
REMARK  207  A    between atoms: _494  and  _496
REMARK  208  A    between atoms: _496  and  _497
REMARK  209  A    between atoms: _499  and  _501
REMARK  210  A    between atoms: _501  and  _502
REMARK  211  A    between atoms: _501  and  _504
REMARK  212  A    between atoms: _504  and  _505
REMARK  213  A    between atoms: _505  and  _506
REMARK  214  A    between atoms: _509  and  _511
REMARK  215  A    between atoms: _511  and  _512
REMARK  216  A    between atoms: _514  and  _516
REMARK  217  A    between atoms: _516  and  _517
REMARK  218  A    between atoms: _516  and  _519
REMARK  219  A    between atoms: _519  and  _520
REMARK  220  A    between atoms: _521  and  _523
REMARK  221  A    between atoms: _523  and  _524
REMARK  222  A    between atoms: _527  and  _529
REMARK  223  A    between atoms: _529  and  _530
REMARK  224  A    between atoms: _529  and  _532
REMARK  225  A    between atoms: _532  and  _533
REMARK  226  A    between atoms: _533  and  _534
REMARK  227  A    between atoms: _539  and  _541
REMARK  228  A    between atoms: _541  and  _542
REMARK  229  A    between atoms: _541  and  _544
REMARK  230  A    between atoms: _544  and  _545
REMARK  231  A    between atoms: _545  and  _546
REMARK  232  A    between atoms: _546  and  _547
REMARK  233  A    between atoms: _557  and  _558
REMARK  234  A    between atoms: _563  and  _565
REMARK  235  A    between atoms: _565  and  _566
REMARK  236  A    between atoms: _568  and  _570
REMARK  237  A    between atoms: _570  and  _571
REMARK  238  A    between atoms: _570  and  _573
REMARK  239  A    between atoms: _576  and  _578
REMARK  240  A    between atoms: _578  and  _579
REMARK  241  A    between atoms: _578  and  _581
REMARK  242  A    between atoms: _581  and  _582
REMARK  243  A    between atoms: _587  and  _588
REMARK  244  A    between atoms: _590  and  _592
REMARK  245  A    between atoms: _592  and  _593
REMARK  246  A    between atoms: _592  and  _595
REMARK  247  A    between atoms: _595  and  _596
REMARK                            x       y       z     vdW  Elec       q    Type
REMARK                         _______ _______ _______ _____ _____    ______ ____
ROOT
ATOM      1  O   HOH     1      34.736  -6.102  26.209  0.00  0.00    +0.000 OA
ENDROOT
TORSDOF 0
REMARK  Name = ../refined-set-2016/4y8x/4y8x_pocket.pdb
REMARK  247 active torsions:
REMARK  status: ('A' for Active; 'I' for Inactive)
REMARK    1  A    between atoms: _1  and  _5
REMARK    2  A    between atoms: _5  and  _6
REMARK    3  A    between atoms: _5  and  _8
REMARK    4  A    between atoms: _8  and  _9
REMARK    5  A    between atoms: _12  and  _14
REMARK    6  A    between atoms: _14  and  _15
REMARK    7  A    between atoms: _14  and  _17
REMARK    8  A    between atoms: _20  and  _22
REMARK    9  A    between atoms: _22  and  _23
REMARK   10  A    between atoms: _22  and  _25
REMARK   11  A    between atoms: _25  and  _26
REMARK   12  A    between atoms: _29  and  _31
REMARK   13  A    between atoms: _31  and  _32
REMARK   14  A    between atoms: _31  and  _34
REMARK   15  A    between atoms: _34  and  _35
REMARK   16  A    between atoms: _38  and  _40
REMARK   17  A    between atoms: _40  and  _41
REMARK   18  A    between atoms: _40  and  _43
REMARK   19  A    between atoms: _43  and  _44
REMARK   20  A    between atoms: _49  and  _51
REMARK   21  A    between atoms: _51  and  _52
REMARK   22  A    between atoms: _51  and  _54
REMARK   23  A    between atoms: _54  and  _55
REMARK   24  A    between atoms: _58  and  _60
REMARK   25  A    between atoms: _60  and  _61
REMARK   26  A    between atoms: _60  and  _63
REMARK   27  A    between atoms: _63  and  _64
REMARK   28  A    between atoms: _67  and  _69
REMARK   29  A    between atoms: _69  and  _70
REMARK   30  A    between atoms: _69  and  _72
REMARK   31  A    between atoms: _72  and  _73
REMARK   32  A    between atoms: _73  and  _74
REMARK   33  A    between atoms: _79  and  _81
REMARK   34  A    between atoms: _81  and  _82
REMARK   35  A    between atoms: _81  and  _84
REMARK   36  A    between atoms: _84  and  _85
REMARK   37  A    between atoms: _85  and  _86
REMARK   38  A    between atoms: _86  and  _87
REMARK   39  A    between atoms: _96  and  _98
REMARK   40  A    between atoms: _98  and  _99
REMARK   41  A    between atoms: _98  and  _101
REMARK   42  A    between atoms: _101  and  _102
REMARK   43  A    between atoms: _107  and  _109
REMARK   44  A    between atoms: _109  and  _110
REMARK   45  A    between atoms: _109  and  _112
REMARK   46  A    between atoms: _112  and  _113
REMARK   47  A    between atoms: _116  and  _118
REMARK   48  A    between atoms: _118  and  _119
REMARK   49  A    between atoms: _118  and  _121
REMARK   50  A    between atoms: _121  and  _122
REMARK   51  A    between atoms: _122  and  _157
REMARK   52  A    between atoms: _123  and  _125
REMARK   53  A    between atoms: _125  and  _126
REMARK   54  A    between atoms: _128  and  _130
REMARK   55  A    between atoms: _130  and  _131
REMARK   56  A    between atoms: _134  and  _136
REMARK   57  A    between atoms: _136  and  _137
REMARK   58  A    between atoms: _140  and  _142
REMARK   59  A    between atoms: _142  and  _143
REMARK   60  A    between atoms: _142  and  _145
REMARK   61  A    between atoms: _145  and  _146
REMARK   62  A    between atoms: _151  and  _153
REMARK   63  A    between atoms: _153  and  _154
REMARK   64  A    between atoms: _153  and  _156
REMARK   65  A    between atoms: _156  and  _157
REMARK   66  A    between atoms: _158  and  _160
REMARK   67  A    between atoms: _160  and  _161
REMARK   68  A    between atoms: _160  and  _163
REMARK   69  A    between atoms: _163  and  _164
REMARK   70  A    between atoms: _170  and  _172
REMARK   71  A    between atoms: _172  and  _173
REMARK   72  A    between atoms: _172  and  _175
REMARK   73  A    between atoms: _175  and  _176
REMARK   74  A    between atoms: _181  and  _182
REMARK   75  A    between atoms: _184  and  _186
REMARK   76  A    between atoms: _186  and  _187
REMARK   77  A    between atoms: _186  and  _189
REMARK   78  A    between atoms: _192  and  _194
REMARK   79  A    between atoms: _194  and  _195
REMARK   80  A    between atoms: _194  and  _197
REMARK   81  A    between atoms: _197  and  _198
REMARK   82  A    between atoms: _198  and  _199
REMARK   83  A    between atoms: _204  and  _206
REMARK   84  A    between atoms: _206  and  _207
REMARK   85  A    between atoms: _210  and  _212
REMARK   86  A    between atoms: _212  and  _213
REMARK   87  A    between atoms: _212  and  _215
REMARK   88  A    between atoms: _215  and  _216
REMARK   89  A    between atoms: _219  and  _221
REMARK   90  A    between atoms: _221  and  _222
REMARK   91  A    between atoms: _221  and  _224
REMARK   92  A    between atoms: _227  and  _229
REMARK   93  A    between atoms: _229  and  _230
REMARK   94  A    between atoms: _229  and  _232
REMARK   95  A    between atoms: _232  and  _233
REMARK   96  A    between atoms: _243  and  _245
REMARK   97  A    between atoms: _245  and  _246
REMARK   98  A    between atoms: _248  and  _250
REMARK   99  A    between atoms: _250  and  _251
REMARK  100  A    between atoms: _250  and  _253
REMARK  101  A    between atoms: _253  and  _254
REMARK  102  A    between atoms: _259  and  _260
REMARK  103  A    between atoms: _262  and  _264
REMARK  104  A    between atoms: _264  and  _265
REMARK  105  A    between atoms: _264  and  _267
REMARK  106  A    between atoms: _267  and  _268
REMARK  107  A    between atoms: _268  and  _269
REMARK  108  A    between atoms: _269  and  _270
REMARK  109  A    between atoms: _270  and  _271
REMARK  110  A    between atoms: _275  and  _277
REMARK  111  A    between atoms: _277  and  _278
REMARK  112  A    between atoms: _277  and  _280
REMARK  113  A    between atoms: _280  and  _281
REMARK  114  A    between atoms: _284  and  _286
REMARK  115  A    between atoms: _286  and  _287
REMARK  116  A    between atoms: _286  and  _289
REMARK  117  A    between atoms: _289  and  _290
REMARK  118  A    between atoms: _293  and  _295
REMARK  119  A    between atoms: _295  and  _296
REMARK  120  A    between atoms: _295  and  _298
REMARK  121  A    between atoms: _298  and  _299
REMARK  122  A    between atoms: _299  and  _300
REMARK  123  A    between atoms: _300  and  _301
REMARK  124  A    between atoms: _301  and  _302
REMARK  125  A    between atoms: _306  and  _308
REMARK  126  A    between atoms: _308  and  _309
REMARK  127  A    between atoms: _308  and  _311
REMARK  128  A    between atoms: _311  and  _312
REMARK  129  A    between atoms: _315  and  _317
REMARK  130  A    between atoms: _317  and  _318
REMARK  131  A    between atoms: _317  and  _320
REMARK  132  A    between atoms: _320  and  _321
REMARK  133  A    between atoms: _321  and  _322
REMARK  134  A    between atoms: _327  and  _329
REMARK  135  A    between atoms: _329  and  _330
REMARK  136  A    between atoms: _329  and  _332
REMARK  137  A    between atoms: _332  and  _333
REMARK  138  A    between atoms: _336  and  _338
REMARK  139  A    between atoms: _338  and  _339
REMARK  140  A    between atoms: _338  and  _341
REMARK  141  A    between atoms: _341  and  _342
REMARK  142  A    between atoms: _347  and  _348
REMARK  143  A    between atoms: _350  and  _352
REMARK  144  A    between atoms: _352  and  _353
REMARK  145  A    between atoms: _352  and  _355
REMARK  146  A    between atoms: _355  and  _356
REMARK  147  A    between atoms: _359  and  _361
REMARK  148  A    between atoms: _361  and  _362
REMARK  149  A    between atoms: _361  and  _364
REMARK  150  A    between atoms: _366  and  _368
REMARK  151  A    between atoms: _368  and  _369
REMARK  152  A    between atoms: _372  and  _374
REMARK  153  A    between atoms: _374  and  _375
REMARK  154  A    between atoms: _374  and  _377
REMARK  155  A    between atoms: _377  and  _378
REMARK  156  A    between atoms: _378  and  _379
REMARK  157  A    between atoms: _379  and  _380
REMARK  158  A    between atoms: _380  and  _381
REMARK  159  A    between atoms: _385  and  _387
REMARK  160  A    between atoms: _387  and  _388
REMARK  161  A    between atoms: _387  and  _390
REMARK  162  A    between atoms: _390  and  _391
REMARK  163  A    between atoms: _394  and  _396
REMARK  164  A    between atoms: _396  and  _397
REMARK  165  A    between atoms: _400  and  _402
REMARK  166  A    between atoms: _402  and  _403
REMARK  167  A    between atoms: _402  and  _405
REMARK  168  A    between atoms: _405  and  _406
REMARK  169  A    between atoms: _406  and  _520
REMARK  170  A    between atoms: _407  and  _409
REMARK  171  A    between atoms: _409  and  _410
REMARK  172  A    between atoms: _409  and  _412
REMARK  173  A    between atoms: _412  and  _413
REMARK  174  A    between atoms: _413  and  _414
REMARK  175  A    between atoms: _414  and  _415
REMARK  176  A    between atoms: _415  and  _416
REMARK  177  A    between atoms: _420  and  _422
REMARK  178  A    between atoms: _422  and  _423
REMARK  179  A    between atoms: _425  and  _427
REMARK  180  A    between atoms: _427  and  _428
REMARK  181  A    between atoms: _427  and  _430
REMARK  182  A    between atoms: _430  and  _431
REMARK  183  A    between atoms: _434  and  _436
REMARK  184  A    between atoms: _436  and  _437
REMARK  185  A    between atoms: _436  and  _439
REMARK  186  A    between atoms: _439  and  _440
REMARK  187  A    between atoms: _442  and  _444
REMARK  188  A    between atoms: _444  and  _445
REMARK  189  A    between atoms: _447  and  _449
REMARK  190  A    between atoms: _449  and  _450
REMARK  191  A    between atoms: _452  and  _454
REMARK  192  A    between atoms: _454  and  _455
REMARK  193  A    between atoms: _454  and  _457
REMARK  194  A    between atoms: _457  and  _458
REMARK  195  A    between atoms: _461  and  _463
REMARK  196  A    between atoms: _463  and  _464
REMARK  197  A    between atoms: _463  and  _466
REMARK  198  A    between atoms: _466  and  _467
REMARK  199  A    between atoms: _470  and  _472
REMARK  200  A    between atoms: _472  and  _473
REMARK  201  A    between atoms: _472  and  _475
REMARK  202  A    between atoms: _475  and  _476
REMARK  203  A    between atoms: _478  and  _480
REMARK  204  A    between atoms: _480  and  _481
REMARK  205  A    between atoms: _480  and  _483
REMARK  206  A    between atoms: _483  and  _484
REMARK  207  A    between atoms: _494  and  _496
REMARK  208  A    between atoms: _496  and  _497
REMARK  209  A    between atoms: _499  and  _501
REMARK  210  A    between atoms: _501  and  _502
REMARK  211  A    between atoms: _501  and  _504
REMARK  212  A    between atoms: _504  and  _505
REMARK  213  A    between atoms: _505  and  _506
REMARK  214  A    between atoms: _509  and  _511
REMARK  215  A    between atoms: _511  and  _512
REMARK  216  A    between atoms: _514  and  _516
REMARK  217  A    between atoms: _516  and  _517
REMARK  218  A    between atoms: _516  and  _519
REMARK  219  A    between atoms: _519  and  _520
REMARK  220  A    between atoms: _521  and  _523
REMARK  221  A    between atoms: _523  and  _524
REMARK  222  A    between atoms: _527  and  _529
REMARK  223  A    between atoms: _529  and  _530
REMARK  224  A    between atoms: _529  and  _532
REMARK  225  A    between atoms: _532  and  _533
REMARK  226  A    between atoms: _533  and  _534
REMARK  227  A    between atoms: _539  and  _541
REMARK  228  A    between atoms: _541  and  _542
REMARK  229  A    between atoms: _541  and  _544
REMARK  230  A    between atoms: _544  and  _545
REMARK  231  A    between atoms: _545  and  _546
REMARK  232  A    between atoms: _546  and  _547
REMARK  233  A    between atoms: _557  and  _558
REMARK  234  A    between atoms: _563  and  _565
REMARK  235  A    between atoms: _565  and  _566
REMARK  236  A    between atoms: _568  and  _570
REMARK  237  A    between atoms: _570  and  _571
REMARK  238  A    between atoms: _570  and  _573
REMARK  239  A    between atoms: _576  and  _578
REMARK  240  A    between atoms: _578  and  _579
REMARK  241  A    between atoms: _578  and  _581
REMARK  242  A    between atoms: _581  and  _582
REMARK  243  A    between atoms: _587  and  _588
REMARK  244  A    between atoms: _590  and  _592
REMARK  245  A    between atoms: _592  and  _593
REMARK  246  A    between atoms: _592  and  _595
REMARK  247  A    between atoms: _595  and  _596
REMARK                            x       y       z     vdW  Elec       q    Type
REMARK                         _______ _______ _______ _____ _____    ______ ____
ROOT
ATOM      1  O   HOH     1      45.571 -25.173  29.589  0.00  0.00    +0.000 OA
ENDROOT
TORSDOF 0
REMARK  Name = ../refined-set-2016/4y8x/4y8x_pocket.pdb
REMARK  247 active torsions:
REMARK  status: ('A' for Active; 'I' for Inactive)
REMARK    1  A    between atoms: _1  and  _5
REMARK    2  A    between atoms: _5  and  _6
REMARK    3  A    between atoms: _5  and  _8
REMARK    4  A    between atoms: _8  and  _9
REMARK    5  A    between atoms: _12  and  _14
REMARK    6  A    between atoms: _14  and  _15
REMARK    7  A    between atoms: _14  and  _17
REMARK    8  A    between atoms: _20  and  _22
REMARK    9  A    between atoms: _22  and  _23
REMARK   10  A    between atoms: _22  and  _25
REMARK   11  A    between atoms: _25  and  _26
REMARK   12  A    between atoms: _29  and  _31
REMARK   13  A    between atoms: _31  and  _32
REMARK   14  A    between atoms: _31  and  _34
REMARK   15  A    between atoms: _34  and  _35
REMARK   16  A    between atoms: _38  and  _40
REMARK   17  A    between atoms: _40  and  _41
REMARK   18  A    between atoms: _40  and  _43
REMARK   19  A    between atoms: _43  and  _44
REMARK   20  A    between atoms: _49  and  _51
REMARK   21  A    between atoms: _51  and  _52
REMARK   22  A    between atoms: _51  and  _54
REMARK   23  A    between atoms: _54  and  _55
REMARK   24  A    between atoms: _58  and  _60
REMARK   25  A    between atoms: _60  and  _61
REMARK   26  A    between atoms: _60  and  _63
REMARK   27  A    between atoms: _63  and  _64
REMARK   28  A    between atoms: _67  and  _69
REMARK   29  A    between atoms: _69  and  _70
REMARK   30  A    between atoms: _69  and  _72
REMARK   31  A    between atoms: _72  and  _73
REMARK   32  A    between atoms: _73  and  _74
REMARK   33  A    between atoms: _79  and  _81
REMARK   34  A    between atoms: _81  and  _82
REMARK   35  A    between atoms: _81  and  _84
REMARK   36  A    between atoms: _84  and  _85
REMARK   37  A    between atoms: _85  and  _86
REMARK   38  A    between atoms: _86  and  _87
REMARK   39  A    between atoms: _96  and  _98
REMARK   40  A    between atoms: _98  and  _99
REMARK   41  A    between atoms: _98  and  _101
REMARK   42  A    between atoms: _101  and  _102
REMARK   43  A    between atoms: _107  and  _109
REMARK   44  A    between atoms: _109  and  _110
REMARK   45  A    between atoms: _109  and  _112
REMARK   46  A    between atoms: _112  and  _113
REMARK   47  A    between atoms: _116  and  _118
REMARK   48  A    between atoms: _118  and  _119
REMARK   49  A    between atoms: _118  and  _121
REMARK   50  A    between atoms: _121  and  _122
REMARK   51  A    between atoms: _122  and  _157
REMARK   52  A    between atoms: _123  and  _125
REMARK   53  A    between atoms: _125  and  _126
REMARK   54  A    between atoms: _128  and  _130
REMARK   55  A    between atoms: _130  and  _131
REMARK   56  A    between atoms: _134  and  _136
REMARK   57  A    between atoms: _136  and  _137
REMARK   58  A    between atoms: _140  and  _142
REMARK   59  A    between atoms: _142  and  _143
REMARK   60  A    between atoms: _142  and  _145
REMARK   61  A    between atoms: _145  and  _146
REMARK   62  A    between atoms: _151  and  _153
REMARK   63  A    between atoms: _153  and  _154
REMARK   64  A    between atoms: _153  and  _156
REMARK   65  A    between atoms: _156  and  _157
REMARK   66  A    between atoms: _158  and  _160
REMARK   67  A    between atoms: _160  and  _161
REMARK   68  A    between atoms: _160  and  _163
REMARK   69  A    between atoms: _163  and  _164
REMARK   70  A    between atoms: _170  and  _172
REMARK   71  A    between atoms: _172  and  _173
REMARK   72  A    between atoms: _172  and  _175
REMARK   73  A    between atoms: _175  and  _176
REMARK   74  A    between atoms: _181  and  _182
REMARK   75  A    between atoms: _184  and  _186
REMARK   76  A    between atoms: _186  and  _187
REMARK   77  A    between atoms: _186  and  _189
REMARK   78  A    between atoms: _192  and  _194
REMARK   79  A    between atoms: _194  and  _195
REMARK   80  A    between atoms: _194  and  _197
REMARK   81  A    between atoms: _197  and  _198
REMARK   82  A    between atoms: _198  and  _199
REMARK   83  A    between atoms: _204  and  _206
REMARK   84  A    between atoms: _206  and  _207
REMARK   85  A    between atoms: _210  and  _212
REMARK   86  A    between atoms: _212  and  _213
REMARK   87  A    between atoms: _212  and  _215
REMARK   88  A    between atoms: _215  and  _216
REMARK   89  A    between atoms: _219  and  _221
REMARK   90  A    between atoms: _221  and  _222
REMARK   91  A    between atoms: _221  and  _224
REMARK   92  A    between atoms: _227  and  _229
REMARK   93  A    between atoms: _229  and  _230
REMARK   94  A    between atoms: _229  and  _232
REMARK   95  A    between atoms: _232  and  _233
REMARK   96  A    between atoms: _243  and  _245
REMARK   97  A    between atoms: _245  and  _246
REMARK   98  A    between atoms: _248  and  _250
REMARK   99  A    between atoms: _250  and  _251
REMARK  100  A    between atoms: _250  and  _253
REMARK  101  A    between atoms: _253  and  _254
REMARK  102  A    between atoms: _259  and  _260
REMARK  103  A    between atoms: _262  and  _264
REMARK  104  A    between atoms: _264  and  _265
REMARK  105  A    between atoms: _264  and  _267
REMARK  106  A    between atoms: _267  and  _268
REMARK  107  A    between atoms: _268  and  _269
REMARK  108  A    between atoms: _269  and  _270
REMARK  109  A    between atoms: _270  and  _271
REMARK  110  A    between atoms: _275  and  _277
REMARK  111  A    between atoms: _277  and  _278
REMARK  112  A    between atoms: _277  and  _280
REMARK  113  A    between atoms: _280  and  _281
REMARK  114  A    between atoms: _284  and  _286
REMARK  115  A    between atoms: _286  and  _287
REMARK  116  A    between atoms: _286  and  _289
REMARK  117  A    between atoms: _289  and  _290
REMARK  118  A    between atoms: _293  and  _295
REMARK  119  A    between atoms: _295  and  _296
REMARK  120  A    between atoms: _295  and  _298
REMARK  121  A    between atoms: _298  and  _299
REMARK  122  A    between atoms: _299  and  _300
REMARK  123  A    between atoms: _300  and  _301
REMARK  124  A    between atoms: _301  and  _302
REMARK  125  A    between atoms: _306  and  _308
REMARK  126  A    between atoms: _308  and  _309
REMARK  127  A    between atoms: _308  and  _311
REMARK  128  A    between atoms: _311  and  _312
REMARK  129  A    between atoms: _315  and  _317
REMARK  130  A    between atoms: _317  and  _318
REMARK  131  A    between atoms: _317  and  _320
REMARK  132  A    between atoms: _320  and  _321
REMARK  133  A    between atoms: _321  and  _322
REMARK  134  A    between atoms: _327  and  _329
REMARK  135  A    between atoms: _329  and  _330
REMARK  136  A    between atoms: _329  and  _332
REMARK  137  A    between atoms: _332  and  _333
REMARK  138  A    between atoms: _336  and  _338
REMARK  139  A    between atoms: _338  and  _339
REMARK  140  A    between atoms: _338  and  _341
REMARK  141  A    between atoms: _341  and  _342
REMARK  142  A    between atoms: _347  and  _348
REMARK  143  A    between atoms: _350  and  _352
REMARK  144  A    between atoms: _352  and  _353
REMARK  145  A    between atoms: _352  and  _355
REMARK  146  A    between atoms: _355  and  _356
REMARK  147  A    between atoms: _359  and  _361
REMARK  148  A    between atoms: _361  and  _362
REMARK  149  A    between atoms: _361  and  _364
REMARK  150  A    between atoms: _366  and  _368
REMARK  151  A    between atoms: _368  and  _369
REMARK  152  A    between atoms: _372  and  _374
REMARK  153  A    between atoms: _374  and  _375
REMARK  154  A    between atoms: _374  and  _377
REMARK  155  A    between atoms: _377  and  _378
REMARK  156  A    between atoms: _378  and  _379
REMARK  157  A    between atoms: _379  and  _380
REMARK  158  A    between atoms: _380  and  _381
REMARK  159  A    between atoms: _385  and  _387
REMARK  160  A    between atoms: _387  and  _388
REMARK  161  A    between atoms: _387  and  _390
REMARK  162  A    between atoms: _390  and  _391
REMARK  163  A    between atoms: _394  and  _396
REMARK  164  A    between atoms: _396  and  _397
REMARK  165  A    between atoms: _400  and  _402
REMARK  166  A    between atoms: _402  and  _403
REMARK  167  A    between atoms: _402  and  _405
REMARK  168  A    between atoms: _405  and  _406
REMARK  169  A    between atoms: _406  and  _520
REMARK  170  A    between atoms: _407  and  _409
REMARK  171  A    between atoms: _409  and  _410
REMARK  172  A    between atoms: _409  and  _412
REMARK  173  A    between atoms: _412  and  _413
REMARK  174  A    between atoms: _413  and  _414
REMARK  175  A    between atoms: _414  and  _415
REMARK  176  A    between atoms: _415  and  _416
REMARK  177  A    between atoms: _420  and  _422
REMARK  178  A    between atoms: _422  and  _423
REMARK  179  A    between atoms: _425  and  _427
REMARK  180  A    between atoms: _427  and  _428
REMARK  181  A    between atoms: _427  and  _430
REMARK  182  A    between atoms: _430  and  _431
REMARK  183  A    between atoms: _434  and  _436
REMARK  184  A    between atoms: _436  and  _437
REMARK  185  A    between atoms: _436  and  _439
REMARK  186  A    between atoms: _439  and  _440
REMARK  187  A    between atoms: _442  and  _444
REMARK  188  A    between atoms: _444  and  _445
REMARK  189  A    between atoms: _447  and  _449
REMARK  190  A    between atoms: _449  and  _450
REMARK  191  A    between atoms: _452  and  _454
REMARK  192  A    between atoms: _454  and  _455
REMARK  193  A    between atoms: _454  and  _457
REMARK  194  A    between atoms: _457  and  _458
REMARK  195  A    between atoms: _461  and  _463
REMARK  196  A    between atoms: _463  and  _464
REMARK  197  A    between atoms: _463  and  _466
REMARK  198  A    between atoms: _466  and  _467
REMARK  199  A    between atoms: _470  and  _472
REMARK  200  A    between atoms: _472  and  _473
REMARK  201  A    between atoms: _472  and  _475
REMARK  202  A    between atoms: _475  and  _476
REMARK  203  A    between atoms: _478  and  _480
REMARK  204  A    between atoms: _480  and  _481
REMARK  205  A    between atoms: _480  and  _483
REMARK  206  A    between atoms: _483  and  _484
REMARK  207  A    between atoms: _494  and  _496
REMARK  208  A    between atoms: _496  and  _497
REMARK  209  A    between atoms: _499  and  _501
REMARK  210  A    between atoms: _501  and  _502
REMARK  211  A    between atoms: _501  and  _504
REMARK  212  A    between atoms: _504  and  _505
REMARK  213  A    between atoms: _505  and  _506
REMARK  214  A    between atoms: _509  and  _511
REMARK  215  A    between atoms: _511  and  _512
REMARK  216  A    between atoms: _514  and  _516
REMARK  217  A    between atoms: _516  and  _517
REMARK  218  A    between atoms: _516  and  _519
REMARK  219  A    between atoms: _519  and  _520
REMARK  220  A    between atoms: _521  and  _523
REMARK  221  A    between atoms: _523  and  _524
REMARK  222  A    between atoms: _527  and  _529
REMARK  223  A    between atoms: _529  and  _530
REMARK  224  A    between atoms: _529  and  _532
REMARK  225  A    between atoms: _532  and  _533
REMARK  226  A    between atoms: _533  and  _534
REMARK  227  A    between atoms: _539  and  _541
REMARK  228  A    between atoms: _541  and  _542
REMARK  229  A    between atoms: _541  and  _544
REMARK  230  A    between atoms: _544  and  _545
REMARK  231  A    between atoms: _545  and  _546
REMARK  232  A    between atoms: _546  and  _547
REMARK  233  A    between atoms: _557  and  _558
REMARK  234  A    between atoms: _563  and  _565
REMARK  235  A    between atoms: _565  and  _566
REMARK  236  A    between atoms: _568  and  _570
REMARK  237  A    between atoms: _570  and  _571
REMARK  238  A    between atoms: _570  and  _573
REMARK  239  A    between atoms: _576  and  _578
REMARK  240  A    between atoms: _578  and  _579
REMARK  241  A    between atoms: _578  and  _581
REMARK  242  A    between atoms: _581  and  _582
REMARK  243  A    between atoms: _587  and  _588
REMARK  244  A    between atoms: _590  and  _592
REMARK  245  A    between atoms: _592  and  _593
REMARK  246  A    between atoms: _592  and  _595
REMARK  247  A    between atoms: _595  and  _596
REMARK                            x       y       z     vdW  Elec       q    Type
REMARK                         _______ _______ _______ _____ _____    ______ ____
ROOT
ATOM      1  O   HOH     1      50.015 -22.224  40.911  0.00  0.00    +0.000 OA
ENDROOT
TORSDOF 0
REMARK  Name = ../refined-set-2016/4y8x/4y8x_pocket.pdb
REMARK  247 active torsions:
REMARK  status: ('A' for Active; 'I' for Inactive)
REMARK    1  A    between atoms: _1  and  _5
REMARK    2  A    between atoms: _5  and  _6
REMARK    3  A    between atoms: _5  and  _8
REMARK    4  A    between atoms: _8  and  _9
REMARK    5  A    between atoms: _12  and  _14
REMARK    6  A    between atoms: _14  and  _15
REMARK    7  A    between atoms: _14  and  _17
REMARK    8  A    between atoms: _20  and  _22
REMARK    9  A    between atoms: _22  and  _23
REMARK   10  A    between atoms: _22  and  _25
REMARK   11  A    between atoms: _25  and  _26
REMARK   12  A    between atoms: _29  and  _31
REMARK   13  A    between atoms: _31  and  _32
REMARK   14  A    between atoms: _31  and  _34
REMARK   15  A    between atoms: _34  and  _35
REMARK   16  A    between atoms: _38  and  _40
REMARK   17  A    between atoms: _40  and  _41
REMARK   18  A    between atoms: _40  and  _43
REMARK   19  A    between atoms: _43  and  _44
REMARK   20  A    between atoms: _49  and  _51
REMARK   21  A    between atoms: _51  and  _52
REMARK   22  A    between atoms: _51  and  _54
REMARK   23  A    between atoms: _54  and  _55
REMARK   24  A    between atoms: _58  and  _60
REMARK   25  A    between atoms: _60  and  _61
REMARK   26  A    between atoms: _60  and  _63
REMARK   27  A    between atoms: _63  and  _64
REMARK   28  A    between atoms: _67  and  _69
REMARK   29  A    between atoms: _69  and  _70
REMARK   30  A    between atoms: _69  and  _72
REMARK   31  A    between atoms: _72  and  _73
REMARK   32  A    between atoms: _73  and  _74
REMARK   33  A    between atoms: _79  and  _81
REMARK   34  A    between atoms: _81  and  _82
REMARK   35  A    between atoms: _81  and  _84
REMARK   36  A    between atoms: _84  and  _85
REMARK   37  A    between atoms: _85  and  _86
REMARK   38  A    between atoms: _86  and  _87
REMARK   39  A    between atoms: _96  and  _98
REMARK   40  A    between atoms: _98  and  _99
REMARK   41  A    between atoms: _98  and  _101
REMARK   42  A    between atoms: _101  and  _102
REMARK   43  A    between atoms: _107  and  _109
REMARK   44  A    between atoms: _109  and  _110
REMARK   45  A    between atoms: _109  and  _112
REMARK   46  A    between atoms: _112  and  _113
REMARK   47  A    between atoms: _116  and  _118
REMARK   48  A    between atoms: _118  and  _119
REMARK   49  A    between atoms: _118  and  _121
REMARK   50  A    between atoms: _121  and  _122
REMARK   51  A    between atoms: _122  and  _157
REMARK   52  A    between atoms: _123  and  _125
REMARK   53  A    between atoms: _125  and  _126
REMARK   54  A    between atoms: _128  and  _130
REMARK   55  A    between atoms: _130  and  _131
REMARK   56  A    between atoms: _134  and  _136
REMARK   57  A    between atoms: _136  and  _137
REMARK   58  A    between atoms: _140  and  _142
REMARK   59  A    between atoms: _142  and  _143
REMARK   60  A    between atoms: _142  and  _145
REMARK   61  A    between atoms: _145  and  _146
REMARK   62  A    between atoms: _151  and  _153
REMARK   63  A    between atoms: _153  and  _154
REMARK   64  A    between atoms: _153  and  _156
REMARK   65  A    between atoms: _156  and  _157
REMARK   66  A    between atoms: _158  and  _160
REMARK   67  A    between atoms: _160  and  _161
REMARK   68  A    between atoms: _160  and  _163
REMARK   69  A    between atoms: _163  and  _164
REMARK   70  A    between atoms: _170  and  _172
REMARK   71  A    between atoms: _172  and  _173
REMARK   72  A    between atoms: _172  and  _175
REMARK   73  A    between atoms: _175  and  _176
REMARK   74  A    between atoms: _181  and  _182
REMARK   75  A    between atoms: _184  and  _186
REMARK   76  A    between atoms: _186  and  _187
REMARK   77  A    between atoms: _186  and  _189
REMARK   78  A    between atoms: _192  and  _194
REMARK   79  A    between atoms: _194  and  _195
REMARK   80  A    between atoms: _194  and  _197
REMARK   81  A    between atoms: _197  and  _198
REMARK   82  A    between atoms: _198  and  _199
REMARK   83  A    between atoms: _204  and  _206
REMARK   84  A    between atoms: _206  and  _207
REMARK   85  A    between atoms: _210  and  _212
REMARK   86  A    between atoms: _212  and  _213
REMARK   87  A    between atoms: _212  and  _215
REMARK   88  A    between atoms: _215  and  _216
REMARK   89  A    between atoms: _219  and  _221
REMARK   90  A    between atoms: _221  and  _222
REMARK   91  A    between atoms: _221  and  _224
REMARK   92  A    between atoms: _227  and  _229
REMARK   93  A    between atoms: _229  and  _230
REMARK   94  A    between atoms: _229  and  _232
REMARK   95  A    between atoms: _232  and  _233
REMARK   96  A    between atoms: _243  and  _245
REMARK   97  A    between atoms: _245  and  _246
REMARK   98  A    between atoms: _248  and  _250
REMARK   99  A    between atoms: _250  and  _251
REMARK  100  A    between atoms: _250  and  _253
REMARK  101  A    between atoms: _253  and  _254
REMARK  102  A    between atoms: _259  and  _260
REMARK  103  A    between atoms: _262  and  _264
REMARK  104  A    between atoms: _264  and  _265
REMARK  105  A    between atoms: _264  and  _267
REMARK  106  A    between atoms: _267  and  _268
REMARK  107  A    between atoms: _268  and  _269
REMARK  108  A    between atoms: _269  and  _270
REMARK  109  A    between atoms: _270  and  _271
REMARK  110  A    between atoms: _275  and  _277
REMARK  111  A    between atoms: _277  and  _278
REMARK  112  A    between atoms: _277  and  _280
REMARK  113  A    between atoms: _280  and  _281
REMARK  114  A    between atoms: _284  and  _286
REMARK  115  A    between atoms: _286  and  _287
REMARK  116  A    between atoms: _286  and  _289
REMARK  117  A    between atoms: _289  and  _290
REMARK  118  A    between atoms: _293  and  _295
REMARK  119  A    between atoms: _295  and  _296
REMARK  120  A    between atoms: _295  and  _298
REMARK  121  A    between atoms: _298  and  _299
REMARK  122  A    between atoms: _299  and  _300
REMARK  123  A    between atoms: _300  and  _301
REMARK  124  A    between atoms: _301  and  _302
REMARK  125  A    between atoms: _306  and  _308
REMARK  126  A    between atoms: _308  and  _309
REMARK  127  A    between atoms: _308  and  _311
REMARK  128  A    between atoms: _311  and  _312
REMARK  129  A    between atoms: _315  and  _317
REMARK  130  A    between atoms: _317  and  _318
REMARK  131  A    between atoms: _317  and  _320
REMARK  132  A    between atoms: _320  and  _321
REMARK  133  A    between atoms: _321  and  _322
REMARK  134  A    between atoms: _327  and  _329
REMARK  135  A    between atoms: _329  and  _330
REMARK  136  A    between atoms: _329  and  _332
REMARK  137  A    between atoms: _332  and  _333
REMARK  138  A    between atoms: _336  and  _338
REMARK  139  A    between atoms: _338  and  _339
REMARK  140  A    between atoms: _338  and  _341
REMARK  141  A    between atoms: _341  and  _342
REMARK  142  A    between atoms: _347  and  _348
REMARK  143  A    between atoms: _350  and  _352
REMARK  144  A    between atoms: _352  and  _353
REMARK  145  A    between atoms: _352  and  _355
REMARK  146  A    between atoms: _355  and  _356
REMARK  147  A    between atoms: _359  and  _361
REMARK  148  A    between atoms: _361  and  _362
REMARK  149  A    between atoms: _361  and  _364
REMARK  150  A    between atoms: _366  and  _368
REMARK  151  A    between atoms: _368  and  _369
REMARK  152  A    between atoms: _372  and  _374
REMARK  153  A    between atoms: _374  and  _375
REMARK  154  A    between atoms: _374  and  _377
REMARK  155  A    between atoms: _377  and  _378
REMARK  156  A    between atoms: _378  and  _379
REMARK  157  A    between atoms: _379  and  _380
REMARK  158  A    between atoms: _380  and  _381
REMARK  159  A    between atoms: _385  and  _387
REMARK  160  A    between atoms: _387  and  _388
REMARK  161  A    between atoms: _387  and  _390
REMARK  162  A    between atoms: _390  and  _391
REMARK  163  A    between atoms: _394  and  _396
REMARK  164  A    between atoms: _396  and  _397
REMARK  165  A    between atoms: _400  and  _402
REMARK  166  A    between atoms: _402  and  _403
REMARK  167  A    between atoms: _402  and  _405
REMARK  168  A    between atoms: _405  and  _406
REMARK  169  A    between atoms: _406  and  _520
REMARK  170  A    between atoms: _407  and  _409
REMARK  171  A    between atoms: _409  and  _410
REMARK  172  A    between atoms: _409  and  _412
REMARK  173  A    between atoms: _412  and  _413
REMARK  174  A    between atoms: _413  and  _414
REMARK  175  A    between atoms: _414  and  _415
REMARK  176  A    between atoms: _415  and  _416
REMARK  177  A    between atoms: _420  and  _422
REMARK  178  A    between atoms: _422  and  _423
REMARK  179  A    between atoms: _425  and  _427
REMARK  180  A    between atoms: _427  and  _428
REMARK  181  A    between atoms: _427  and  _430
REMARK  182  A    between atoms: _430  and  _431
REMARK  183  A    between atoms: _434  and  _436
REMARK  184  A    between atoms: _436  and  _437
REMARK  185  A    between atoms: _436  and  _439
REMARK  186  A    between atoms: _439  and  _440
REMARK  187  A    between atoms: _442  and  _444
REMARK  188  A    between atoms: _444  and  _445
REMARK  189  A    between atoms: _447  and  _449
REMARK  190  A    between atoms: _449  and  _450
REMARK  191  A    between atoms: _452  and  _454
REMARK  192  A    between atoms: _454  and  _455
REMARK  193  A    between atoms: _454  and  _457
REMARK  194  A    between atoms: _457  and  _458
REMARK  195  A    between atoms: _461  and  _463
REMARK  196  A    between atoms: _463  and  _464
REMARK  197  A    between atoms: _463  and  _466
REMARK  198  A    between atoms: _466  and  _467
REMARK  199  A    between atoms: _470  and  _472
REMARK  200  A    between atoms: _472  and  _473
REMARK  201  A    between atoms: _472  and  _475
REMARK  202  A    between atoms: _475  and  _476
REMARK  203  A    between atoms: _478  and  _480
REMARK  204  A    between atoms: _480  and  _481
REMARK  205  A    between atoms: _480  and  _483
REMARK  206  A    between atoms: _483  and  _484
REMARK  207  A    between atoms: _494  and  _496
REMARK  208  A    between atoms: _496  and  _497
REMARK  209  A    between atoms: _499  and  _501
REMARK  210  A    between atoms: _501  and  _502
REMARK  211  A    between atoms: _501  and  _504
REMARK  212  A    between atoms: _504  and  _505
REMARK  213  A    between atoms: _505  and  _506
REMARK  214  A    between atoms: _509  and  _511
REMARK  215  A    between atoms: _511  and  _512
REMARK  216  A    between atoms: _514  and  _516
REMARK  217  A    between atoms: _516  and  _517
REMARK  218  A    between atoms: _516  and  _519
REMARK  219  A    between atoms: _519  and  _520
REMARK  220  A    between atoms: _521  and  _523
REMARK  221  A    between atoms: _523  and  _524
REMARK  222  A    between atoms: _527  and  _529
REMARK  223  A    between atoms: _529  and  _530
REMARK  224  A    between atoms: _529  and  _532
REMARK  225  A    between atoms: _532  and  _533
REMARK  226  A    between atoms: _533  and  _534
REMARK  227  A    between atoms: _539  and  _541
REMARK  228  A    between atoms: _541  and  _542
REMARK  229  A    between atoms: _541  and  _544
REMARK  230  A    between atoms: _544  and  _545
REMARK  231  A    between atoms: _545  and  _546
REMARK  232  A    between atoms: _546  and  _547
REMARK  233  A    between atoms: _557  and  _558
REMARK  234  A    between atoms: _563  and  _565
REMARK  235  A    between atoms: _565  and  _566
REMARK  236  A    between atoms: _568  and  _570
REMARK  237  A    between atoms: _570  and  _571
REMARK  238  A    between atoms: _570  and  _573
REMARK  239  A    between atoms: _576  and  _578
REMARK  240  A    between atoms: _578  and  _579
REMARK  241  A    between atoms: _578  and  _581
REMARK  242  A    between atoms: _581  and  _582
REMARK  243  A    between atoms: _587  and  _588
REMARK  244  A    between atoms: _590  and  _592
REMARK  245  A    between atoms: _592  and  _593
REMARK  246  A    between atoms: _592  and  _595
REMARK  247  A    between atoms: _595  and  _596
REMARK                            x       y       z     vdW  Elec       q    Type
REMARK                         _______ _______ _______ _____ _____    ______ ____
ROOT
ATOM      1  O   HOH     1      48.797 -19.248  26.117  0.00  0.00    +0.000 OA
ENDROOT
TORSDOF 0
REMARK  Name = ../refined-set-2016/4y8x/4y8x_pocket.pdb
REMARK  247 active torsions:
REMARK  status: ('A' for Active; 'I' for Inactive)
REMARK    1  A    between atoms: _1  and  _5
REMARK    2  A    between atoms: _5  and  _6
REMARK    3  A    between atoms: _5  and  _8
REMARK    4  A    between atoms: _8  and  _9
REMARK    5  A    between atoms: _12  and  _14
REMARK    6  A    between atoms: _14  and  _15
REMARK    7  A    between atoms: _14  and  _17
REMARK    8  A    between atoms: _20  and  _22
REMARK    9  A    between atoms: _22  and  _23
REMARK   10  A    between atoms: _22  and  _25
REMARK   11  A    between atoms: _25  and  _26
REMARK   12  A    between atoms: _29  and  _31
REMARK   13  A    between atoms: _31  and  _32
REMARK   14  A    between atoms: _31  and  _34
REMARK   15  A    between atoms: _34  and  _35
REMARK   16  A    between atoms: _38  and  _40
REMARK   17  A    between atoms: _40  and  _41
REMARK   18  A    between atoms: _40  and  _43
REMARK   19  A    between atoms: _43  and  _44
REMARK   20  A    between atoms: _49  and  _51
REMARK   21  A    between atoms: _51  and  _52
REMARK   22  A    between atoms: _51  and  _54
REMARK   23  A    between atoms: _54  and  _55
REMARK   24  A    between atoms: _58  and  _60
REMARK   25  A    between atoms: _60  and  _61
REMARK   26  A    between atoms: _60  and  _63
REMARK   27  A    between atoms: _63  and  _64
REMARK   28  A    between atoms: _67  and  _69
REMARK   29  A    between atoms: _69  and  _70
REMARK   30  A    between atoms: _69  and  _72
REMARK   31  A    between atoms: _72  and  _73
REMARK   32  A    between atoms: _73  and  _74
REMARK   33  A    between atoms: _79  and  _81
REMARK   34  A    between atoms: _81  and  _82
REMARK   35  A    between atoms: _81  and  _84
REMARK   36  A    between atoms: _84  and  _85
REMARK   37  A    between atoms: _85  and  _86
REMARK   38  A    between atoms: _86  and  _87
REMARK   39  A    between atoms: _96  and  _98
REMARK   40  A    between atoms: _98  and  _99
REMARK   41  A    between atoms: _98  and  _101
REMARK   42  A    between atoms: _101  and  _102
REMARK   43  A    between atoms: _107  and  _109
REMARK   44  A    between atoms: _109  and  _110
REMARK   45  A    between atoms: _109  and  _112
REMARK   46  A    between atoms: _112  and  _113
REMARK   47  A    between atoms: _116  and  _118
REMARK   48  A    between atoms: _118  and  _119
REMARK   49  A    between atoms: _118  and  _121
REMARK   50  A    between atoms: _121  and  _122
REMARK   51  A    between atoms: _122  and  _157
REMARK   52  A    between atoms: _123  and  _125
REMARK   53  A    between atoms: _125  and  _126
REMARK   54  A    between atoms: _128  and  _130
REMARK   55  A    between atoms: _130  and  _131
REMARK   56  A    between atoms: _134  and  _136
REMARK   57  A    between atoms: _136  and  _137
REMARK   58  A    between atoms: _140  and  _142
REMARK   59  A    between atoms: _142  and  _143
REMARK   60  A    between atoms: _142  and  _145
REMARK   61  A    between atoms: _145  and  _146
REMARK   62  A    between atoms: _151  and  _153
REMARK   63  A    between atoms: _153  and  _154
REMARK   64  A    between atoms: _153  and  _156
REMARK   65  A    between atoms: _156  and  _157
REMARK   66  A    between atoms: _158  and  _160
REMARK   67  A    between atoms: _160  and  _161
REMARK   68  A    between atoms: _160  and  _163
REMARK   69  A    between atoms: _163  and  _164
REMARK   70  A    between atoms: _170  and  _172
REMARK   71  A    between atoms: _172  and  _173
REMARK   72  A    between atoms: _172  and  _175
REMARK   73  A    between atoms: _175  and  _176
REMARK   74  A    between atoms: _181  and  _182
REMARK   75  A    between atoms: _184  and  _186
REMARK   76  A    between atoms: _186  and  _187
REMARK   77  A    between atoms: _186  and  _189
REMARK   78  A    between atoms: _192  and  _194
REMARK   79  A    between atoms: _194  and  _195
REMARK   80  A    between atoms: _194  and  _197
REMARK   81  A    between atoms: _197  and  _198
REMARK   82  A    between atoms: _198  and  _199
REMARK   83  A    between atoms: _204  and  _206
REMARK   84  A    between atoms: _206  and  _207
REMARK   85  A    between atoms: _210  and  _212
REMARK   86  A    between atoms: _212  and  _213
REMARK   87  A    between atoms: _212  and  _215
REMARK   88  A    between atoms: _215  and  _216
REMARK   89  A    between atoms: _219  and  _221
REMARK   90  A    between atoms: _221  and  _222
REMARK   91  A    between atoms: _221  and  _224
REMARK   92  A    between atoms: _227  and  _229
REMARK   93  A    between atoms: _229  and  _230
REMARK   94  A    between atoms: _229  and  _232
REMARK   95  A    between atoms: _232  and  _233
REMARK   96  A    between atoms: _243  and  _245
REMARK   97  A    between atoms: _245  and  _246
REMARK   98  A    between atoms: _248  and  _250
REMARK   99  A    between atoms: _250  and  _251
REMARK  100  A    between atoms: _250  and  _253
REMARK  101  A    between atoms: _253  and  _254
REMARK  102  A    between atoms: _259  and  _260
REMARK  103  A    between atoms: _262  and  _264
REMARK  104  A    between atoms: _264  and  _265
REMARK  105  A    between atoms: _264  and  _267
REMARK  106  A    between atoms: _267  and  _268
REMARK  107  A    between atoms: _268  and  _269
REMARK  108  A    between atoms: _269  and  _270
REMARK  109  A    between atoms: _270  and  _271
REMARK  110  A    between atoms: _275  and  _277
REMARK  111  A    between atoms: _277  and  _278
REMARK  112  A    between atoms: _277  and  _280
REMARK  113  A    between atoms: _280  and  _281
REMARK  114  A    between atoms: _284  and  _286
REMARK  115  A    between atoms: _286  and  _287
REMARK  116  A    between atoms: _286  and  _289
REMARK  117  A    between atoms: _289  and  _290
REMARK  118  A    between atoms: _293  and  _295
REMARK  119  A    between atoms: _295  and  _296
REMARK  120  A    between atoms: _295  and  _298
REMARK  121  A    between atoms: _298  and  _299
REMARK  122  A    between atoms: _299  and  _300
REMARK  123  A    between atoms: _300  and  _301
REMARK  124  A    between atoms: _301  and  _302
REMARK  125  A    between atoms: _306  and  _308
REMARK  126  A    between atoms: _308  and  _309
REMARK  127  A    between atoms: _308  and  _311
REMARK  128  A    between atoms: _311  and  _312
REMARK  129  A    between atoms: _315  and  _317
REMARK  130  A    between atoms: _317  and  _318
REMARK  131  A    between atoms: _317  and  _320
REMARK  132  A    between atoms: _320  and  _321
REMARK  133  A    between atoms: _321  and  _322
REMARK  134  A    between atoms: _327  and  _329
REMARK  135  A    between atoms: _329  and  _330
REMARK  136  A    between atoms: _329  and  _332
REMARK  137  A    between atoms: _332  and  _333
REMARK  138  A    between atoms: _336  and  _338
REMARK  139  A    between atoms: _338  and  _339
REMARK  140  A    between atoms: _338  and  _341
REMARK  141  A    between atoms: _341  and  _342
REMARK  142  A    between atoms: _347  and  _348
REMARK  143  A    between atoms: _350  and  _352
REMARK  144  A    between atoms: _352  and  _353
REMARK  145  A    between atoms: _352  and  _355
REMARK  146  A    between atoms: _355  and  _356
REMARK  147  A    between atoms: _359  and  _361
REMARK  148  A    between atoms: _361  and  _362
REMARK  149  A    between atoms: _361  and  _364
REMARK  150  A    between atoms: _366  and  _368
REMARK  151  A    between atoms: _368  and  _369
REMARK  152  A    between atoms: _372  and  _374
REMARK  153  A    between atoms: _374  and  _375
REMARK  154  A    between atoms: _374  and  _377
REMARK  155  A    between atoms: _377  and  _378
REMARK  156  A    between atoms: _378  and  _379
REMARK  157  A    between atoms: _379  and  _380
REMARK  158  A    between atoms: _380  and  _381
REMARK  159  A    between atoms: _385  and  _387
REMARK  160  A    between atoms: _387  and  _388
REMARK  161  A    between atoms: _387  and  _390
REMARK  162  A    between atoms: _390  and  _391
REMARK  163  A    between atoms: _394  and  _396
REMARK  164  A    between atoms: _396  and  _397
REMARK  165  A    between atoms: _400  and  _402
REMARK  166  A    between atoms: _402  and  _403
REMARK  167  A    between atoms: _402  and  _405
REMARK  168  A    between atoms: _405  and  _406
REMARK  169  A    between atoms: _406  and  _520
REMARK  170  A    between atoms: _407  and  _409
REMARK  171  A    between atoms: _409  and  _410
REMARK  172  A    between atoms: _409  and  _412
REMARK  173  A    between atoms: _412  and  _413
REMARK  174  A    between atoms: _413  and  _414
REMARK  175  A    between atoms: _414  and  _415
REMARK  176  A    between atoms: _415  and  _416
REMARK  177  A    between atoms: _420  and  _422
REMARK  178  A    between atoms: _422  and  _423
REMARK  179  A    between atoms: _425  and  _427
REMARK  180  A    between atoms: _427  and  _428
REMARK  181  A    between atoms: _427  and  _430
REMARK  182  A    between atoms: _430  and  _431
REMARK  183  A    between atoms: _434  and  _436
REMARK  184  A    between atoms: _436  and  _437
REMARK  185  A    between atoms: _436  and  _439
REMARK  186  A    between atoms: _439  and  _440
REMARK  187  A    between atoms: _442  and  _444
REMARK  188  A    between atoms: _444  and  _445
REMARK  189  A    between atoms: _447  and  _449
REMARK  190  A    between atoms: _449  and  _450
REMARK  191  A    between atoms: _452  and  _454
REMARK  192  A    between atoms: _454  and  _455
REMARK  193  A    between atoms: _454  and  _457
REMARK  194  A    between atoms: _457  and  _458
REMARK  195  A    between atoms: _461  and  _463
REMARK  196  A    between atoms: _463  and  _464
REMARK  197  A    between atoms: _463  and  _466
REMARK  198  A    between atoms: _466  and  _467
REMARK  199  A    between atoms: _470  and  _472
REMARK  200  A    between atoms: _472  and  _473
REMARK  201  A    between atoms: _472  and  _475
REMARK  202  A    between atoms: _475  and  _476
REMARK  203  A    between atoms: _478  and  _480
REMARK  204  A    between atoms: _480  and  _481
REMARK  205  A    between atoms: _480  and  _483
REMARK  206  A    between atoms: _483  and  _484
REMARK  207  A    between atoms: _494  and  _496
REMARK  208  A    between atoms: _496  and  _497
REMARK  209  A    between atoms: _499  and  _501
REMARK  210  A    between atoms: _501  and  _502
REMARK  211  A    between atoms: _501  and  _504
REMARK  212  A    between atoms: _504  and  _505
REMARK  213  A    between atoms: _505  and  _506
REMARK  214  A    between atoms: _509  and  _511
REMARK  215  A    between atoms: _511  and  _512
REMARK  216  A    between atoms: _514  and  _516
REMARK  217  A    between atoms: _516  and  _517
REMARK  218  A    between atoms: _516  and  _519
REMARK  219  A    between atoms: _519  and  _520
REMARK  220  A    between atoms: _521  and  _523
REMARK  221  A    between atoms: _523  and  _524
REMARK  222  A    between atoms: _527  and  _529
REMARK  223  A    between atoms: _529  and  _530
REMARK  224  A    between atoms: _529  and  _532
REMARK  225  A    between atoms: _532  and  _533
REMARK  226  A    between atoms: _533  and  _534
REMARK  227  A    between atoms: _539  and  _541
REMARK  228  A    between atoms: _541  and  _542
REMARK  229  A    between atoms: _541  and  _544
REMARK  230  A    between atoms: _544  and  _545
REMARK  231  A    between atoms: _545  and  _546
REMARK  232  A    between atoms: _546  and  _547
REMARK  233  A    between atoms: _557  and  _558
REMARK  234  A    between atoms: _563  and  _565
REMARK  235  A    between atoms: _565  and  _566
REMARK  236  A    between atoms: _568  and  _570
REMARK  237  A    between atoms: _570  and  _571
REMARK  238  A    between atoms: _570  and  _573
REMARK  239  A    between atoms: _576  and  _578
REMARK  240  A    between atoms: _578  and  _579
REMARK  241  A    between atoms: _578  and  _581
REMARK  242  A    between atoms: _581  and  _582
REMARK  243  A    between atoms: _587  and  _588
REMARK  244  A    between atoms: _590  and  _592
REMARK  245  A    between atoms: _592  and  _593
REMARK  246  A    between atoms: _592  and  _595
REMARK  247  A    between atoms: _595  and  _596
REMARK                            x       y       z     vdW  Elec       q    Type
REMARK                         _______ _______ _______ _____ _____    ______ ____
ROOT
ATOM      1  O   HOH     1      43.749 -30.089  30.989  0.00  0.00    +0.000 OA
ENDROOT
TORSDOF 0
REMARK  Name = ../refined-set-2016/4y8x/4y8x_pocket.pdb
REMARK  247 active torsions:
REMARK  status: ('A' for Active; 'I' for Inactive)
REMARK    1  A    between atoms: _1  and  _5
REMARK    2  A    between atoms: _5  and  _6
REMARK    3  A    between atoms: _5  and  _8
REMARK    4  A    between atoms: _8  and  _9
REMARK    5  A    between atoms: _12  and  _14
REMARK    6  A    between atoms: _14  and  _15
REMARK    7  A    between atoms: _14  and  _17
REMARK    8  A    between atoms: _20  and  _22
REMARK    9  A    between atoms: _22  and  _23
REMARK   10  A    between atoms: _22  and  _25
REMARK   11  A    between atoms: _25  and  _26
REMARK   12  A    between atoms: _29  and  _31
REMARK   13  A    between atoms: _31  and  _32
REMARK   14  A    between atoms: _31  and  _34
REMARK   15  A    between atoms: _34  and  _35
REMARK   16  A    between atoms: _38  and  _40
REMARK   17  A    between atoms: _40  and  _41
REMARK   18  A    between atoms: _40  and  _43
REMARK   19  A    between atoms: _43  and  _44
REMARK   20  A    between atoms: _49  and  _51
REMARK   21  A    between atoms: _51  and  _52
REMARK   22  A    between atoms: _51  and  _54
REMARK   23  A    between atoms: _54  and  _55
REMARK   24  A    between atoms: _58  and  _60
REMARK   25  A    between atoms: _60  and  _61
REMARK   26  A    between atoms: _60  and  _63
REMARK   27  A    between atoms: _63  and  _64
REMARK   28  A    between atoms: _67  and  _69
REMARK   29  A    between atoms: _69  and  _70
REMARK   30  A    between atoms: _69  and  _72
REMARK   31  A    between atoms: _72  and  _73
REMARK   32  A    between atoms: _73  and  _74
REMARK   33  A    between atoms: _79  and  _81
REMARK   34  A    between atoms: _81  and  _82
REMARK   35  A    between atoms: _81  and  _84
REMARK   36  A    between atoms: _84  and  _85
REMARK   37  A    between atoms: _85  and  _86
REMARK   38  A    between atoms: _86  and  _87
REMARK   39  A    between atoms: _96  and  _98
REMARK   40  A    between atoms: _98  and  _99
REMARK   41  A    between atoms: _98  and  _101
REMARK   42  A    between atoms: _101  and  _102
REMARK   43  A    between atoms: _107  and  _109
REMARK   44  A    between atoms: _109  and  _110
REMARK   45  A    between atoms: _109  and  _112
REMARK   46  A    between atoms: _112  and  _113
REMARK   47  A    between atoms: _116  and  _118
REMARK   48  A    between atoms: _118  and  _119
REMARK   49  A    between atoms: _118  and  _121
REMARK   50  A    between atoms: _121  and  _122
REMARK   51  A    between atoms: _122  and  _157
REMARK   52  A    between atoms: _123  and  _125
REMARK   53  A    between atoms: _125  and  _126
REMARK   54  A    between atoms: _128  and  _130
REMARK   55  A    between atoms: _130  and  _131
REMARK   56  A    between atoms: _134  and  _136
REMARK   57  A    between atoms: _136  and  _137
REMARK   58  A    between atoms: _140  and  _142
REMARK   59  A    between atoms: _142  and  _143
REMARK   60  A    between atoms: _142  and  _145
REMARK   61  A    between atoms: _145  and  _146
REMARK   62  A    between atoms: _151  and  _153
REMARK   63  A    between atoms: _153  and  _154
REMARK   64  A    between atoms: _153  and  _156
REMARK   65  A    between atoms: _156  and  _157
REMARK   66  A    between atoms: _158  and  _160
REMARK   67  A    between atoms: _160  and  _161
REMARK   68  A    between atoms: _160  and  _163
REMARK   69  A    between atoms: _163  and  _164
REMARK   70  A    between atoms: _170  and  _172
REMARK   71  A    between atoms: _172  and  _173
REMARK   72  A    between atoms: _172  and  _175
REMARK   73  A    between atoms: _175  and  _176
REMARK   74  A    between atoms: _181  and  _182
REMARK   75  A    between atoms: _184  and  _186
REMARK   76  A    between atoms: _186  and  _187
REMARK   77  A    between atoms: _186  and  _189
REMARK   78  A    between atoms: _192  and  _194
REMARK   79  A    between atoms: _194  and  _195
REMARK   80  A    between atoms: _194  and  _197
REMARK   81  A    between atoms: _197  and  _198
REMARK   82  A    between atoms: _198  and  _199
REMARK   83  A    between atoms: _204  and  _206
REMARK   84  A    between atoms: _206  and  _207
REMARK   85  A    between atoms: _210  and  _212
REMARK   86  A    between atoms: _212  and  _213
REMARK   87  A    between atoms: _212  and  _215
REMARK   88  A    between atoms: _215  and  _216
REMARK   89  A    between atoms: _219  and  _221
REMARK   90  A    between atoms: _221  and  _222
REMARK   91  A    between atoms: _221  and  _224
REMARK   92  A    between atoms: _227  and  _229
REMARK   93  A    between atoms: _229  and  _230
REMARK   94  A    between atoms: _229  and  _232
REMARK   95  A    between atoms: _232  and  _233
REMARK   96  A    between atoms: _243  and  _245
REMARK   97  A    between atoms: _245  and  _246
REMARK   98  A    between atoms: _248  and  _250
REMARK   99  A    between atoms: _250  and  _251
REMARK  100  A    between atoms: _250  and  _253
REMARK  101  A    between atoms: _253  and  _254
REMARK  102  A    between atoms: _259  and  _260
REMARK  103  A    between atoms: _262  and  _264
REMARK  104  A    between atoms: _264  and  _265
REMARK  105  A    between atoms: _264  and  _267
REMARK  106  A    between atoms: _267  and  _268
REMARK  107  A    between atoms: _268  and  _269
REMARK  108  A    between atoms: _269  and  _270
REMARK  109  A    between atoms: _270  and  _271
REMARK  110  A    between atoms: _275  and  _277
REMARK  111  A    between atoms: _277  and  _278
REMARK  112  A    between atoms: _277  and  _280
REMARK  113  A    between atoms: _280  and  _281
REMARK  114  A    between atoms: _284  and  _286
REMARK  115  A    between atoms: _286  and  _287
REMARK  116  A    between atoms: _286  and  _289
REMARK  117  A    between atoms: _289  and  _290
REMARK  118  A    between atoms: _293  and  _295
REMARK  119  A    between atoms: _295  and  _296
REMARK  120  A    between atoms: _295  and  _298
REMARK  121  A    between atoms: _298  and  _299
REMARK  122  A    between atoms: _299  and  _300
REMARK  123  A    between atoms: _300  and  _301
REMARK  124  A    between atoms: _301  and  _302
REMARK  125  A    between atoms: _306  and  _308
REMARK  126  A    between atoms: _308  and  _309
REMARK  127  A    between atoms: _308  and  _311
REMARK  128  A    between atoms: _311  and  _312
REMARK  129  A    between atoms: _315  and  _317
REMARK  130  A    between atoms: _317  and  _318
REMARK  131  A    between atoms: _317  and  _320
REMARK  132  A    between atoms: _320  and  _321
REMARK  133  A    between atoms: _321  and  _322
REMARK  134  A    between atoms: _327  and  _329
REMARK  135  A    between atoms: _329  and  _330
REMARK  136  A    between atoms: _329  and  _332
REMARK  137  A    between atoms: _332  and  _333
REMARK  138  A    between atoms: _336  and  _338
REMARK  139  A    between atoms: _338  and  _339
REMARK  140  A    between atoms: _338  and  _341
REMARK  141  A    between atoms: _341  and  _342
REMARK  142  A    between atoms: _347  and  _348
REMARK  143  A    between atoms: _350  and  _352
REMARK  144  A    between atoms: _352  and  _353
REMARK  145  A    between atoms: _352  and  _355
REMARK  146  A    between atoms: _355  and  _356
REMARK  147  A    between atoms: _359  and  _361
REMARK  148  A    between atoms: _361  and  _362
REMARK  149  A    between atoms: _361  and  _364
REMARK  150  A    between atoms: _366  and  _368
REMARK  151  A    between atoms: _368  and  _369
REMARK  152  A    between atoms: _372  and  _374
REMARK  153  A    between atoms: _374  and  _375
REMARK  154  A    between atoms: _374  and  _377
REMARK  155  A    between atoms: _377  and  _378
REMARK  156  A    between atoms: _378  and  _379
REMARK  157  A    between atoms: _379  and  _380
REMARK  158  A    between atoms: _380  and  _381
REMARK  159  A    between atoms: _385  and  _387
REMARK  160  A    between atoms: _387  and  _388
REMARK  161  A    between atoms: _387  and  _390
REMARK  162  A    between atoms: _390  and  _391
REMARK  163  A    between atoms: _394  and  _396
REMARK  164  A    between atoms: _396  and  _397
REMARK  165  A    between atoms: _400  and  _402
REMARK  166  A    between atoms: _402  and  _403
REMARK  167  A    between atoms: _402  and  _405
REMARK  168  A    between atoms: _405  and  _406
REMARK  169  A    between atoms: _406  and  _520
REMARK  170  A    between atoms: _407  and  _409
REMARK  171  A    between atoms: _409  and  _410
REMARK  172  A    between atoms: _409  and  _412
REMARK  173  A    between atoms: _412  and  _413
REMARK  174  A    between atoms: _413  and  _414
REMARK  175  A    between atoms: _414  and  _415
REMARK  176  A    between atoms: _415  and  _416
REMARK  177  A    between atoms: _420  and  _422
REMARK  178  A    between atoms: _422  and  _423
REMARK  179  A    between atoms: _425  and  _427
REMARK  180  A    between atoms: _427  and  _428
REMARK  181  A    between atoms: _427  and  _430
REMARK  182  A    between atoms: _430  and  _431
REMARK  183  A    between atoms: _434  and  _436
REMARK  184  A    between atoms: _436  and  _437
REMARK  185  A    between atoms: _436  and  _439
REMARK  186  A    between atoms: _439  and  _440
REMARK  187  A    between atoms: _442  and  _444
REMARK  188  A    between atoms: _444  and  _445
REMARK  189  A    between atoms: _447  and  _449
REMARK  190  A    between atoms: _449  and  _450
REMARK  191  A    between atoms: _452  and  _454
REMARK  192  A    between atoms: _454  and  _455
REMARK  193  A    between atoms: _454  and  _457
REMARK  194  A    between atoms: _457  and  _458
REMARK  195  A    between atoms: _461  and  _463
REMARK  196  A    between atoms: _463  and  _464
REMARK  197  A    between atoms: _463  and  _466
REMARK  198  A    between atoms: _466  and  _467
REMARK  199  A    between atoms: _470  and  _472
REMARK  200  A    between atoms: _472  and  _473
REMARK  201  A    between atoms: _472  and  _475
REMARK  202  A    between atoms: _475  and  _476
REMARK  203  A    between atoms: _478  and  _480
REMARK  204  A    between atoms: _480  and  _481
REMARK  205  A    between atoms: _480  and  _483
REMARK  206  A    between atoms: _483  and  _484
REMARK  207  A    between atoms: _494  and  _496
REMARK  208  A    between atoms: _496  and  _497
REMARK  209  A    between atoms: _499  and  _501
REMARK  210  A    between atoms: _501  and  _502
REMARK  211  A    between atoms: _501  and  _504
REMARK  212  A    between atoms: _504  and  _505
REMARK  213  A    between atoms: _505  and  _506
REMARK  214  A    between atoms: _509  and  _511
REMARK  215  A    between atoms: _511  and  _512
REMARK  216  A    between atoms: _514  and  _516
REMARK  217  A    between atoms: _516  and  _517
REMARK  218  A    between atoms: _516  and  _519
REMARK  219  A    between atoms: _519  and  _520
REMARK  220  A    between atoms: _521  and  _523
REMARK  221  A    between atoms: _523  and  _524
REMARK  222  A    between atoms: _527  and  _529
REMARK  223  A    between atoms: _529  and  _530
REMARK  224  A    between atoms: _529  and  _532
REMARK  225  A    between atoms: _532  and  _533
REMARK  226  A    between atoms: _533  and  _534
REMARK  227  A    between atoms: _539  and  _541
REMARK  228  A    between atoms: _541  and  _542
REMARK  229  A    between atoms: _541  and  _544
REMARK  230  A    between atoms: _544  and  _545
REMARK  231  A    between atoms: _545  and  _546
REMARK  232  A    between atoms: _546  and  _547
REMARK  233  A    between atoms: _557  and  _558
REMARK  234  A    between atoms: _563  and  _565
REMARK  235  A    between atoms: _565  and  _566
REMARK  236  A    between atoms: _568  and  _570
REMARK  237  A    between atoms: _570  and  _571
REMARK  238  A    between atoms: _570  and  _573
REMARK  239  A    between atoms: _576  and  _578
REMARK  240  A    between atoms: _578  and  _579
REMARK  241  A    between atoms: _578  and  _581
REMARK  242  A    between atoms: _581  and  _582
REMARK  243  A    between atoms: _587  and  _588
REMARK  244  A    between atoms: _590  and  _592
REMARK  245  A    between atoms: _592  and  _593
REMARK  246  A    between atoms: _592  and  _595
REMARK  247  A    between atoms: _595  and  _596
REMARK                            x       y       z     vdW  Elec       q    Type
REMARK                         _______ _______ _______ _____ _____    ______ ____
ROOT
ATOM      1  O   HOH     1      46.762 -19.337  24.333  0.00  0.00    +0.000 OA
ENDROOT
TORSDOF 0
REMARK  Name = ../refined-set-2016/4y8x/4y8x_pocket.pdb
REMARK  247 active torsions:
REMARK  status: ('A' for Active; 'I' for Inactive)
REMARK    1  A    between atoms: _1  and  _5
REMARK    2  A    between atoms: _5  and  _6
REMARK    3  A    between atoms: _5  and  _8
REMARK    4  A    between atoms: _8  and  _9
REMARK    5  A    between atoms: _12  and  _14
REMARK    6  A    between atoms: _14  and  _15
REMARK    7  A    between atoms: _14  and  _17
REMARK    8  A    between atoms: _20  and  _22
REMARK    9  A    between atoms: _22  and  _23
REMARK   10  A    between atoms: _22  and  _25
REMARK   11  A    between atoms: _25  and  _26
REMARK   12  A    between atoms: _29  and  _31
REMARK   13  A    between atoms: _31  and  _32
REMARK   14  A    between atoms: _31  and  _34
REMARK   15  A    between atoms: _34  and  _35
REMARK   16  A    between atoms: _38  and  _40
REMARK   17  A    between atoms: _40  and  _41
REMARK   18  A    between atoms: _40  and  _43
REMARK   19  A    between atoms: _43  and  _44
REMARK   20  A    between atoms: _49  and  _51
REMARK   21  A    between atoms: _51  and  _52
REMARK   22  A    between atoms: _51  and  _54
REMARK   23  A    between atoms: _54  and  _55
REMARK   24  A    between atoms: _58  and  _60
REMARK   25  A    between atoms: _60  and  _61
REMARK   26  A    between atoms: _60  and  _63
REMARK   27  A    between atoms: _63  and  _64
REMARK   28  A    between atoms: _67  and  _69
REMARK   29  A    between atoms: _69  and  _70
REMARK   30  A    between atoms: _69  and  _72
REMARK   31  A    between atoms: _72  and  _73
REMARK   32  A    between atoms: _73  and  _74
REMARK   33  A    between atoms: _79  and  _81
REMARK   34  A    between atoms: _81  and  _82
REMARK   35  A    between atoms: _81  and  _84
REMARK   36  A    between atoms: _84  and  _85
REMARK   37  A    between atoms: _85  and  _86
REMARK   38  A    between atoms: _86  and  _87
REMARK   39  A    between atoms: _96  and  _98
REMARK   40  A    between atoms: _98  and  _99
REMARK   41  A    between atoms: _98  and  _101
REMARK   42  A    between atoms: _101  and  _102
REMARK   43  A    between atoms: _107  and  _109
REMARK   44  A    between atoms: _109  and  _110
REMARK   45  A    between atoms: _109  and  _112
REMARK   46  A    between atoms: _112  and  _113
REMARK   47  A    between atoms: _116  and  _118
REMARK   48  A    between atoms: _118  and  _119
REMARK   49  A    between atoms: _118  and  _121
REMARK   50  A    between atoms: _121  and  _122
REMARK   51  A    between atoms: _122  and  _157
REMARK   52  A    between atoms: _123  and  _125
REMARK   53  A    between atoms: _125  and  _126
REMARK   54  A    between atoms: _128  and  _130
REMARK   55  A    between atoms: _130  and  _131
REMARK   56  A    between atoms: _134  and  _136
REMARK   57  A    between atoms: _136  and  _137
REMARK   58  A    between atoms: _140  and  _142
REMARK   59  A    between atoms: _142  and  _143
REMARK   60  A    between atoms: _142  and  _145
REMARK   61  A    between atoms: _145  and  _146
REMARK   62  A    between atoms: _151  and  _153
REMARK   63  A    between atoms: _153  and  _154
REMARK   64  A    between atoms: _153  and  _156
REMARK   65  A    between atoms: _156  and  _157
REMARK   66  A    between atoms: _158  and  _160
REMARK   67  A    between atoms: _160  and  _161
REMARK   68  A    between atoms: _160  and  _163
REMARK   69  A    between atoms: _163  and  _164
REMARK   70  A    between atoms: _170  and  _172
REMARK   71  A    between atoms: _172  and  _173
REMARK   72  A    between atoms: _172  and  _175
REMARK   73  A    between atoms: _175  and  _176
REMARK   74  A    between atoms: _181  and  _182
REMARK   75  A    between atoms: _184  and  _186
REMARK   76  A    between atoms: _186  and  _187
REMARK   77  A    between atoms: _186  and  _189
REMARK   78  A    between atoms: _192  and  _194
REMARK   79  A    between atoms: _194  and  _195
REMARK   80  A    between atoms: _194  and  _197
REMARK   81  A    between atoms: _197  and  _198
REMARK   82  A    between atoms: _198  and  _199
REMARK   83  A    between atoms: _204  and  _206
REMARK   84  A    between atoms: _206  and  _207
REMARK   85  A    between atoms: _210  and  _212
REMARK   86  A    between atoms: _212  and  _213
REMARK   87  A    between atoms: _212  and  _215
REMARK   88  A    between atoms: _215  and  _216
REMARK   89  A    between atoms: _219  and  _221
REMARK   90  A    between atoms: _221  and  _222
REMARK   91  A    between atoms: _221  and  _224
REMARK   92  A    between atoms: _227  and  _229
REMARK   93  A    between atoms: _229  and  _230
REMARK   94  A    between atoms: _229  and  _232
REMARK   95  A    between atoms: _232  and  _233
REMARK   96  A    between atoms: _243  and  _245
REMARK   97  A    between atoms: _245  and  _246
REMARK   98  A    between atoms: _248  and  _250
REMARK   99  A    between atoms: _250  and  _251
REMARK  100  A    between atoms: _250  and  _253
REMARK  101  A    between atoms: _253  and  _254
REMARK  102  A    between atoms: _259  and  _260
REMARK  103  A    between atoms: _262  and  _264
REMARK  104  A    between atoms: _264  and  _265
REMARK  105  A    between atoms: _264  and  _267
REMARK  106  A    between atoms: _267  and  _268
REMARK  107  A    between atoms: _268  and  _269
REMARK  108  A    between atoms: _269  and  _270
REMARK  109  A    between atoms: _270  and  _271
REMARK  110  A    between atoms: _275  and  _277
REMARK  111  A    between atoms: _277  and  _278
REMARK  112  A    between atoms: _277  and  _280
REMARK  113  A    between atoms: _280  and  _281
REMARK  114  A    between atoms: _284  and  _286
REMARK  115  A    between atoms: _286  and  _287
REMARK  116  A    between atoms: _286  and  _289
REMARK  117  A    between atoms: _289  and  _290
REMARK  118  A    between atoms: _293  and  _295
REMARK  119  A    between atoms: _295  and  _296
REMARK  120  A    between atoms: _295  and  _298
REMARK  121  A    between atoms: _298  and  _299
REMARK  122  A    between atoms: _299  and  _300
REMARK  123  A    between atoms: _300  and  _301
REMARK  124  A    between atoms: _301  and  _302
REMARK  125  A    between atoms: _306  and  _308
REMARK  126  A    between atoms: _308  and  _309
REMARK  127  A    between atoms: _308  and  _311
REMARK  128  A    between atoms: _311  and  _312
REMARK  129  A    between atoms: _315  and  _317
REMARK  130  A    between atoms: _317  and  _318
REMARK  131  A    between atoms: _317  and  _320
REMARK  132  A    between atoms: _320  and  _321
REMARK  133  A    between atoms: _321  and  _322
REMARK  134  A    between atoms: _327  and  _329
REMARK  135  A    between atoms: _329  and  _330
REMARK  136  A    between atoms: _329  and  _332
REMARK  137  A    between atoms: _332  and  _333
REMARK  138  A    between atoms: _336  and  _338
REMARK  139  A    between atoms: _338  and  _339
REMARK  140  A    between atoms: _338  and  _341
REMARK  141  A    between atoms: _341  and  _342
REMARK  142  A    between atoms: _347  and  _348
REMARK  143  A    between atoms: _350  and  _352
REMARK  144  A    between atoms: _352  and  _353
REMARK  145  A    between atoms: _352  and  _355
REMARK  146  A    between atoms: _355  and  _356
REMARK  147  A    between atoms: _359  and  _361
REMARK  148  A    between atoms: _361  and  _362
REMARK  149  A    between atoms: _361  and  _364
REMARK  150  A    between atoms: _366  and  _368
REMARK  151  A    between atoms: _368  and  _369
REMARK  152  A    between atoms: _372  and  _374
REMARK  153  A    between atoms: _374  and  _375
REMARK  154  A    between atoms: _374  and  _377
REMARK  155  A    between atoms: _377  and  _378
REMARK  156  A    between atoms: _378  and  _379
REMARK  157  A    between atoms: _379  and  _380
REMARK  158  A    between atoms: _380  and  _381
REMARK  159  A    between atoms: _385  and  _387
REMARK  160  A    between atoms: _387  and  _388
REMARK  161  A    between atoms: _387  and  _390
REMARK  162  A    between atoms: _390  and  _391
REMARK  163  A    between atoms: _394  and  _396
REMARK  164  A    between atoms: _396  and  _397
REMARK  165  A    between atoms: _400  and  _402
REMARK  166  A    between atoms: _402  and  _403
REMARK  167  A    between atoms: _402  and  _405
REMARK  168  A    between atoms: _405  and  _406
REMARK  169  A    between atoms: _406  and  _520
REMARK  170  A    between atoms: _407  and  _409
REMARK  171  A    between atoms: _409  and  _410
REMARK  172  A    between atoms: _409  and  _412
REMARK  173  A    between atoms: _412  and  _413
REMARK  174  A    between atoms: _413  and  _414
REMARK  175  A    between atoms: _414  and  _415
REMARK  176  A    between atoms: _415  and  _416
REMARK  177  A    between atoms: _420  and  _422
REMARK  178  A    between atoms: _422  and  _423
REMARK  179  A    between atoms: _425  and  _427
REMARK  180  A    between atoms: _427  and  _428
REMARK  181  A    between atoms: _427  and  _430
REMARK  182  A    between atoms: _430  and  _431
REMARK  183  A    between atoms: _434  and  _436
REMARK  184  A    between atoms: _436  and  _437
REMARK  185  A    between atoms: _436  and  _439
REMARK  186  A    between atoms: _439  and  _440
REMARK  187  A    between atoms: _442  and  _444
REMARK  188  A    between atoms: _444  and  _445
REMARK  189  A    between atoms: _447  and  _449
REMARK  190  A    between atoms: _449  and  _450
REMARK  191  A    between atoms: _452  and  _454
REMARK  192  A    between atoms: _454  and  _455
REMARK  193  A    between atoms: _454  and  _457
REMARK  194  A    between atoms: _457  and  _458
REMARK  195  A    between atoms: _461  and  _463
REMARK  196  A    between atoms: _463  and  _464
REMARK  197  A    between atoms: _463  and  _466
REMARK  198  A    between atoms: _466  and  _467
REMARK  199  A    between atoms: _470  and  _472
REMARK  200  A    between atoms: _472  and  _473
REMARK  201  A    between atoms: _472  and  _475
REMARK  202  A    between atoms: _475  and  _476
REMARK  203  A    between atoms: _478  and  _480
REMARK  204  A    between atoms: _480  and  _481
REMARK  205  A    between atoms: _480  and  _483
REMARK  206  A    between atoms: _483  and  _484
REMARK  207  A    between atoms: _494  and  _496
REMARK  208  A    between atoms: _496  and  _497
REMARK  209  A    between atoms: _499  and  _501
REMARK  210  A    between atoms: _501  and  _502
REMARK  211  A    between atoms: _501  and  _504
REMARK  212  A    between atoms: _504  and  _505
REMARK  213  A    between atoms: _505  and  _506
REMARK  214  A    between atoms: _509  and  _511
REMARK  215  A    between atoms: _511  and  _512
REMARK  216  A    between atoms: _514  and  _516
REMARK  217  A    between atoms: _516  and  _517
REMARK  218  A    between atoms: _516  and  _519
REMARK  219  A    between atoms: _519  and  _520
REMARK  220  A    between atoms: _521  and  _523
REMARK  221  A    between atoms: _523  and  _524
REMARK  222  A    between atoms: _527  and  _529
REMARK  223  A    between atoms: _529  and  _530
REMARK  224  A    between atoms: _529  and  _532
REMARK  225  A    between atoms: _532  and  _533
REMARK  226  A    between atoms: _533  and  _534
REMARK  227  A    between atoms: _539  and  _541
REMARK  228  A    between atoms: _541  and  _542
REMARK  229  A    between atoms: _541  and  _544
REMARK  230  A    between atoms: _544  and  _545
REMARK  231  A    between atoms: _545  and  _546
REMARK  232  A    between atoms: _546  and  _547
REMARK  233  A    between atoms: _557  and  _558
REMARK  234  A    between atoms: _563  and  _565
REMARK  235  A    between atoms: _565  and  _566
REMARK  236  A    between atoms: _568  and  _570
REMARK  237  A    between atoms: _570  and  _571
REMARK  238  A    between atoms: _570  and  _573
REMARK  239  A    between atoms: _576  and  _578
REMARK  240  A    between atoms: _578  and  _579
REMARK  241  A    between atoms: _578  and  _581
REMARK  242  A    between atoms: _581  and  _582
REMARK  243  A    between atoms: _587  and  _588
REMARK  244  A    between atoms: _590  and  _592
REMARK  245  A    between atoms: _592  and  _593
REMARK  246  A    between atoms: _592  and  _595
REMARK  247  A    between atoms: _595  and  _596
REMARK                            x       y       z     vdW  Elec       q    Type
REMARK                         _______ _______ _______ _____ _____    ______ ____
ROOT
ATOM      1  O   HOH     1      36.540 -21.789  24.976  0.00  0.00    +0.000 OA
ENDROOT
TORSDOF 0
REMARK  Name = ../refined-set-2016/4y8x/4y8x_pocket.pdb
REMARK  247 active torsions:
REMARK  status: ('A' for Active; 'I' for Inactive)
REMARK    1  A    between atoms: _1  and  _5
REMARK    2  A    between atoms: _5  and  _6
REMARK    3  A    between atoms: _5  and  _8
REMARK    4  A    between atoms: _8  and  _9
REMARK    5  A    between atoms: _12  and  _14
REMARK    6  A    between atoms: _14  and  _15
REMARK    7  A    between atoms: _14  and  _17
REMARK    8  A    between atoms: _20  and  _22
REMARK    9  A    between atoms: _22  and  _23
REMARK   10  A    between atoms: _22  and  _25
REMARK   11  A    between atoms: _25  and  _26
REMARK   12  A    between atoms: _29  and  _31
REMARK   13  A    between atoms: _31  and  _32
REMARK   14  A    between atoms: _31  and  _34
REMARK   15  A    between atoms: _34  and  _35
REMARK   16  A    between atoms: _38  and  _40
REMARK   17  A    between atoms: _40  and  _41
REMARK   18  A    between atoms: _40  and  _43
REMARK   19  A    between atoms: _43  and  _44
REMARK   20  A    between atoms: _49  and  _51
REMARK   21  A    between atoms: _51  and  _52
REMARK   22  A    between atoms: _51  and  _54
REMARK   23  A    between atoms: _54  and  _55
REMARK   24  A    between atoms: _58  and  _60
REMARK   25  A    between atoms: _60  and  _61
REMARK   26  A    between atoms: _60  and  _63
REMARK   27  A    between atoms: _63  and  _64
REMARK   28  A    between atoms: _67  and  _69
REMARK   29  A    between atoms: _69  and  _70
REMARK   30  A    between atoms: _69  and  _72
REMARK   31  A    between atoms: _72  and  _73
REMARK   32  A    between atoms: _73  and  _74
REMARK   33  A    between atoms: _79  and  _81
REMARK   34  A    between atoms: _81  and  _82
REMARK   35  A    between atoms: _81  and  _84
REMARK   36  A    between atoms: _84  and  _85
REMARK   37  A    between atoms: _85  and  _86
REMARK   38  A    between atoms: _86  and  _87
REMARK   39  A    between atoms: _96  and  _98
REMARK   40  A    between atoms: _98  and  _99
REMARK   41  A    between atoms: _98  and  _101
REMARK   42  A    between atoms: _101  and  _102
REMARK   43  A    between atoms: _107  and  _109
REMARK   44  A    between atoms: _109  and  _110
REMARK   45  A    between atoms: _109  and  _112
REMARK   46  A    between atoms: _112  and  _113
REMARK   47  A    between atoms: _116  and  _118
REMARK   48  A    between atoms: _118  and  _119
REMARK   49  A    between atoms: _118  and  _121
REMARK   50  A    between atoms: _121  and  _122
REMARK   51  A    between atoms: _122  and  _157
REMARK   52  A    between atoms: _123  and  _125
REMARK   53  A    between atoms: _125  and  _126
REMARK   54  A    between atoms: _128  and  _130
REMARK   55  A    between atoms: _130  and  _131
REMARK   56  A    between atoms: _134  and  _136
REMARK   57  A    between atoms: _136  and  _137
REMARK   58  A    between atoms: _140  and  _142
REMARK   59  A    between atoms: _142  and  _143
REMARK   60  A    between atoms: _142  and  _145
REMARK   61  A    between atoms: _145  and  _146
REMARK   62  A    between atoms: _151  and  _153
REMARK   63  A    between atoms: _153  and  _154
REMARK   64  A    between atoms: _153  and  _156
REMARK   65  A    between atoms: _156  and  _157
REMARK   66  A    between atoms: _158  and  _160
REMARK   67  A    between atoms: _160  and  _161
REMARK   68  A    between atoms: _160  and  _163
REMARK   69  A    between atoms: _163  and  _164
REMARK   70  A    between atoms: _170  and  _172
REMARK   71  A    between atoms: _172  and  _173
REMARK   72  A    between atoms: _172  and  _175
REMARK   73  A    between atoms: _175  and  _176
REMARK   74  A    between atoms: _181  and  _182
REMARK   75  A    between atoms: _184  and  _186
REMARK   76  A    between atoms: _186  and  _187
REMARK   77  A    between atoms: _186  and  _189
REMARK   78  A    between atoms: _192  and  _194
REMARK   79  A    between atoms: _194  and  _195
REMARK   80  A    between atoms: _194  and  _197
REMARK   81  A    between atoms: _197  and  _198
REMARK   82  A    between atoms: _198  and  _199
REMARK   83  A    between atoms: _204  and  _206
REMARK   84  A    between atoms: _206  and  _207
REMARK   85  A    between atoms: _210  and  _212
REMARK   86  A    between atoms: _212  and  _213
REMARK   87  A    between atoms: _212  and  _215
REMARK   88  A    between atoms: _215  and  _216
REMARK   89  A    between atoms: _219  and  _221
REMARK   90  A    between atoms: _221  and  _222
REMARK   91  A    between atoms: _221  and  _224
REMARK   92  A    between atoms: _227  and  _229
REMARK   93  A    between atoms: _229  and  _230
REMARK   94  A    between atoms: _229  and  _232
REMARK   95  A    between atoms: _232  and  _233
REMARK   96  A    between atoms: _243  and  _245
REMARK   97  A    between atoms: _245  and  _246
REMARK   98  A    between atoms: _248  and  _250
REMARK   99  A    between atoms: _250  and  _251
REMARK  100  A    between atoms: _250  and  _253
REMARK  101  A    between atoms: _253  and  _254
REMARK  102  A    between atoms: _259  and  _260
REMARK  103  A    between atoms: _262  and  _264
REMARK  104  A    between atoms: _264  and  _265
REMARK  105  A    between atoms: _264  and  _267
REMARK  106  A    between atoms: _267  and  _268
REMARK  107  A    between atoms: _268  and  _269
REMARK  108  A    between atoms: _269  and  _270
REMARK  109  A    between atoms: _270  and  _271
REMARK  110  A    between atoms: _275  and  _277
REMARK  111  A    between atoms: _277  and  _278
REMARK  112  A    between atoms: _277  and  _280
REMARK  113  A    between atoms: _280  and  _281
REMARK  114  A    between atoms: _284  and  _286
REMARK  115  A    between atoms: _286  and  _287
REMARK  116  A    between atoms: _286  and  _289
REMARK  117  A    between atoms: _289  and  _290
REMARK  118  A    between atoms: _293  and  _295
REMARK  119  A    between atoms: _295  and  _296
REMARK  120  A    between atoms: _295  and  _298
REMARK  121  A    between atoms: _298  and  _299
REMARK  122  A    between atoms: _299  and  _300
REMARK  123  A    between atoms: _300  and  _301
REMARK  124  A    between atoms: _301  and  _302
REMARK  125  A    between atoms: _306  and  _308
REMARK  126  A    between atoms: _308  and  _309
REMARK  127  A    between atoms: _308  and  _311
REMARK  128  A    between atoms: _311  and  _312
REMARK  129  A    between atoms: _315  and  _317
REMARK  130  A    between atoms: _317  and  _318
REMARK  131  A    between atoms: _317  and  _320
REMARK  132  A    between atoms: _320  and  _321
REMARK  133  A    between atoms: _321  and  _322
REMARK  134  A    between atoms: _327  and  _329
REMARK  135  A    between atoms: _329  and  _330
REMARK  136  A    between atoms: _329  and  _332
REMARK  137  A    between atoms: _332  and  _333
REMARK  138  A    between atoms: _336  and  _338
REMARK  139  A    between atoms: _338  and  _339
REMARK  140  A    between atoms: _338  and  _341
REMARK  141  A    between atoms: _341  and  _342
REMARK  142  A    between atoms: _347  and  _348
REMARK  143  A    between atoms: _350  and  _352
REMARK  144  A    between atoms: _352  and  _353
REMARK  145  A    between atoms: _352  and  _355
REMARK  146  A    between atoms: _355  and  _356
REMARK  147  A    between atoms: _359  and  _361
REMARK  148  A    between atoms: _361  and  _362
REMARK  149  A    between atoms: _361  and  _364
REMARK  150  A    between atoms: _366  and  _368
REMARK  151  A    between atoms: _368  and  _369
REMARK  152  A    between atoms: _372  and  _374
REMARK  153  A    between atoms: _374  and  _375
REMARK  154  A    between atoms: _374  and  _377
REMARK  155  A    between atoms: _377  and  _378
REMARK  156  A    between atoms: _378  and  _379
REMARK  157  A    between atoms: _379  and  _380
REMARK  158  A    between atoms: _380  and  _381
REMARK  159  A    between atoms: _385  and  _387
REMARK  160  A    between atoms: _387  and  _388
REMARK  161  A    between atoms: _387  and  _390
REMARK  162  A    between atoms: _390  and  _391
REMARK  163  A    between atoms: _394  and  _396
REMARK  164  A    between atoms: _396  and  _397
REMARK  165  A    between atoms: _400  and  _402
REMARK  166  A    between atoms: _402  and  _403
REMARK  167  A    between atoms: _402  and  _405
REMARK  168  A    between atoms: _405  and  _406
REMARK  169  A    between atoms: _406  and  _520
REMARK  170  A    between atoms: _407  and  _409
REMARK  171  A    between atoms: _409  and  _410
REMARK  172  A    between atoms: _409  and  _412
REMARK  173  A    between atoms: _412  and  _413
REMARK  174  A    between atoms: _413  and  _414
REMARK  175  A    between atoms: _414  and  _415
REMARK  176  A    between atoms: _415  and  _416
REMARK  177  A    between atoms: _420  and  _422
REMARK  178  A    between atoms: _422  and  _423
REMARK  179  A    between atoms: _425  and  _427
REMARK  180  A    between atoms: _427  and  _428
REMARK  181  A    between atoms: _427  and  _430
REMARK  182  A    between atoms: _430  and  _431
REMARK  183  A    between atoms: _434  and  _436
REMARK  184  A    between atoms: _436  and  _437
REMARK  185  A    between atoms: _436  and  _439
REMARK  186  A    between atoms: _439  and  _440
REMARK  187  A    between atoms: _442  and  _444
REMARK  188  A    between atoms: _444  and  _445
REMARK  189  A    between atoms: _447  and  _449
REMARK  190  A    between atoms: _449  and  _450
REMARK  191  A    between atoms: _452  and  _454
REMARK  192  A    between atoms: _454  and  _455
REMARK  193  A    between atoms: _454  and  _457
REMARK  194  A    between atoms: _457  and  _458
REMARK  195  A    between atoms: _461  and  _463
REMARK  196  A    between atoms: _463  and  _464
REMARK  197  A    between atoms: _463  and  _466
REMARK  198  A    between atoms: _466  and  _467
REMARK  199  A    between atoms: _470  and  _472
REMARK  200  A    between atoms: _472  and  _473
REMARK  201  A    between atoms: _472  and  _475
REMARK  202  A    between atoms: _475  and  _476
REMARK  203  A    between atoms: _478  and  _480
REMARK  204  A    between atoms: _480  and  _481
REMARK  205  A    between atoms: _480  and  _483
REMARK  206  A    between atoms: _483  and  _484
REMARK  207  A    between atoms: _494  and  _496
REMARK  208  A    between atoms: _496  and  _497
REMARK  209  A    between atoms: _499  and  _501
REMARK  210  A    between atoms: _501  and  _502
REMARK  211  A    between atoms: _501  and  _504
REMARK  212  A    between atoms: _504  and  _505
REMARK  213  A    between atoms: _505  and  _506
REMARK  214  A    between atoms: _509  and  _511
REMARK  215  A    between atoms: _511  and  _512
REMARK  216  A    between atoms: _514  and  _516
REMARK  217  A    between atoms: _516  and  _517
REMARK  218  A    between atoms: _516  and  _519
REMARK  219  A    between atoms: _519  and  _520
REMARK  220  A    between atoms: _521  and  _523
REMARK  221  A    between atoms: _523  and  _524
REMARK  222  A    between atoms: _527  and  _529
REMARK  223  A    between atoms: _529  and  _530
REMARK  224  A    between atoms: _529  and  _532
REMARK  225  A    between atoms: _532  and  _533
REMARK  226  A    between atoms: _533  and  _534
REMARK  227  A    between atoms: _539  and  _541
REMARK  228  A    between atoms: _541  and  _542
REMARK  229  A    between atoms: _541  and  _544
REMARK  230  A    between atoms: _544  and  _545
REMARK  231  A    between atoms: _545  and  _546
REMARK  232  A    between atoms: _546  and  _547
REMARK  233  A    between atoms: _557  and  _558
REMARK  234  A    between atoms: _563  and  _565
REMARK  235  A    between atoms: _565  and  _566
REMARK  236  A    between atoms: _568  and  _570
REMARK  237  A    between atoms: _570  and  _571
REMARK  238  A    between atoms: _570  and  _573
REMARK  239  A    between atoms: _576  and  _578
REMARK  240  A    between atoms: _578  and  _579
REMARK  241  A    between atoms: _578  and  _581
REMARK  242  A    between atoms: _581  and  _582
REMARK  243  A    between atoms: _587  and  _588
REMARK  244  A    between atoms: _590  and  _592
REMARK  245  A    between atoms: _592  and  _593
REMARK  246  A    between atoms: _592  and  _595
REMARK  247  A    between atoms: _595  and  _596
REMARK                            x       y       z     vdW  Elec       q    Type
REMARK                         _______ _______ _______ _____ _____    ______ ____
ROOT
ATOM      1  O   HOH     1      52.125 -25.254  41.521  0.00  0.00    +0.000 OA
ENDROOT
TORSDOF 0
REMARK  Name = ../refined-set-2016/4y8x/4y8x_pocket.pdb
REMARK  247 active torsions:
REMARK  status: ('A' for Active; 'I' for Inactive)
REMARK    1  A    between atoms: _1  and  _5
REMARK    2  A    between atoms: _5  and  _6
REMARK    3  A    between atoms: _5  and  _8
REMARK    4  A    between atoms: _8  and  _9
REMARK    5  A    between atoms: _12  and  _14
REMARK    6  A    between atoms: _14  and  _15
REMARK    7  A    between atoms: _14  and  _17
REMARK    8  A    between atoms: _20  and  _22
REMARK    9  A    between atoms: _22  and  _23
REMARK   10  A    between atoms: _22  and  _25
REMARK   11  A    between atoms: _25  and  _26
REMARK   12  A    between atoms: _29  and  _31
REMARK   13  A    between atoms: _31  and  _32
REMARK   14  A    between atoms: _31  and  _34
REMARK   15  A    between atoms: _34  and  _35
REMARK   16  A    between atoms: _38  and  _40
REMARK   17  A    between atoms: _40  and  _41
REMARK   18  A    between atoms: _40  and  _43
REMARK   19  A    between atoms: _43  and  _44
REMARK   20  A    between atoms: _49  and  _51
REMARK   21  A    between atoms: _51  and  _52
REMARK   22  A    between atoms: _51  and  _54
REMARK   23  A    between atoms: _54  and  _55
REMARK   24  A    between atoms: _58  and  _60
REMARK   25  A    between atoms: _60  and  _61
REMARK   26  A    between atoms: _60  and  _63
REMARK   27  A    between atoms: _63  and  _64
REMARK   28  A    between atoms: _67  and  _69
REMARK   29  A    between atoms: _69  and  _70
REMARK   30  A    between atoms: _69  and  _72
REMARK   31  A    between atoms: _72  and  _73
REMARK   32  A    between atoms: _73  and  _74
REMARK   33  A    between atoms: _79  and  _81
REMARK   34  A    between atoms: _81  and  _82
REMARK   35  A    between atoms: _81  and  _84
REMARK   36  A    between atoms: _84  and  _85
REMARK   37  A    between atoms: _85  and  _86
REMARK   38  A    between atoms: _86  and  _87
REMARK   39  A    between atoms: _96  and  _98
REMARK   40  A    between atoms: _98  and  _99
REMARK   41  A    between atoms: _98  and  _101
REMARK   42  A    between atoms: _101  and  _102
REMARK   43  A    between atoms: _107  and  _109
REMARK   44  A    between atoms: _109  and  _110
REMARK   45  A    between atoms: _109  and  _112
REMARK   46  A    between atoms: _112  and  _113
REMARK   47  A    between atoms: _116  and  _118
REMARK   48  A    between atoms: _118  and  _119
REMARK   49  A    between atoms: _118  and  _121
REMARK   50  A    between atoms: _121  and  _122
REMARK   51  A    between atoms: _122  and  _157
REMARK   52  A    between atoms: _123  and  _125
REMARK   53  A    between atoms: _125  and  _126
REMARK   54  A    between atoms: _128  and  _130
REMARK   55  A    between atoms: _130  and  _131
REMARK   56  A    between atoms: _134  and  _136
REMARK   57  A    between atoms: _136  and  _137
REMARK   58  A    between atoms: _140  and  _142
REMARK   59  A    between atoms: _142  and  _143
REMARK   60  A    between atoms: _142  and  _145
REMARK   61  A    between atoms: _145  and  _146
REMARK   62  A    between atoms: _151  and  _153
REMARK   63  A    between atoms: _153  and  _154
REMARK   64  A    between atoms: _153  and  _156
REMARK   65  A    between atoms: _156  and  _157
REMARK   66  A    between atoms: _158  and  _160
REMARK   67  A    between atoms: _160  and  _161
REMARK   68  A    between atoms: _160  and  _163
REMARK   69  A    between atoms: _163  and  _164
REMARK   70  A    between atoms: _170  and  _172
REMARK   71  A    between atoms: _172  and  _173
REMARK   72  A    between atoms: _172  and  _175
REMARK   73  A    between atoms: _175  and  _176
REMARK   74  A    between atoms: _181  and  _182
REMARK   75  A    between atoms: _184  and  _186
REMARK   76  A    between atoms: _186  and  _187
REMARK   77  A    between atoms: _186  and  _189
REMARK   78  A    between atoms: _192  and  _194
REMARK   79  A    between atoms: _194  and  _195
REMARK   80  A    between atoms: _194  and  _197
REMARK   81  A    between atoms: _197  and  _198
REMARK   82  A    between atoms: _198  and  _199
REMARK   83  A    between atoms: _204  and  _206
REMARK   84  A    between atoms: _206  and  _207
REMARK   85  A    between atoms: _210  and  _212
REMARK   86  A    between atoms: _212  and  _213
REMARK   87  A    between atoms: _212  and  _215
REMARK   88  A    between atoms: _215  and  _216
REMARK   89  A    between atoms: _219  and  _221
REMARK   90  A    between atoms: _221  and  _222
REMARK   91  A    between atoms: _221  and  _224
REMARK   92  A    between atoms: _227  and  _229
REMARK   93  A    between atoms: _229  and  _230
REMARK   94  A    between atoms: _229  and  _232
REMARK   95  A    between atoms: _232  and  _233
REMARK   96  A    between atoms: _243  and  _245
REMARK   97  A    between atoms: _245  and  _246
REMARK   98  A    between atoms: _248  and  _250
REMARK   99  A    between atoms: _250  and  _251
REMARK  100  A    between atoms: _250  and  _253
REMARK  101  A    between atoms: _253  and  _254
REMARK  102  A    between atoms: _259  and  _260
REMARK  103  A    between atoms: _262  and  _264
REMARK  104  A    between atoms: _264  and  _265
REMARK  105  A    between atoms: _264  and  _267
REMARK  106  A    between atoms: _267  and  _268
REMARK  107  A    between atoms: _268  and  _269
REMARK  108  A    between atoms: _269  and  _270
REMARK  109  A    between atoms: _270  and  _271
REMARK  110  A    between atoms: _275  and  _277
REMARK  111  A    between atoms: _277  and  _278
REMARK  112  A    between atoms: _277  and  _280
REMARK  113  A    between atoms: _280  and  _281
REMARK  114  A    between atoms: _284  and  _286
REMARK  115  A    between atoms: _286  and  _287
REMARK  116  A    between atoms: _286  and  _289
REMARK  117  A    between atoms: _289  and  _290
REMARK  118  A    between atoms: _293  and  _295
REMARK  119  A    between atoms: _295  and  _296
REMARK  120  A    between atoms: _295  and  _298
REMARK  121  A    between atoms: _298  and  _299
REMARK  122  A    between atoms: _299  and  _300
REMARK  123  A    between atoms: _300  and  _301
REMARK  124  A    between atoms: _301  and  _302
REMARK  125  A    between atoms: _306  and  _308
REMARK  126  A    between atoms: _308  and  _309
REMARK  127  A    between atoms: _308  and  _311
REMARK  128  A    between atoms: _311  and  _312
REMARK  129  A    between atoms: _315  and  _317
REMARK  130  A    between atoms: _317  and  _318
REMARK  131  A    between atoms: _317  and  _320
REMARK  132  A    between atoms: _320  and  _321
REMARK  133  A    between atoms: _321  and  _322
REMARK  134  A    between atoms: _327  and  _329
REMARK  135  A    between atoms: _329  and  _330
REMARK  136  A    between atoms: _329  and  _332
REMARK  137  A    between atoms: _332  and  _333
REMARK  138  A    between atoms: _336  and  _338
REMARK  139  A    between atoms: _338  and  _339
REMARK  140  A    between atoms: _338  and  _341
REMARK  141  A    between atoms: _341  and  _342
REMARK  142  A    between atoms: _347  and  _348
REMARK  143  A    between atoms: _350  and  _352
REMARK  144  A    between atoms: _352  and  _353
REMARK  145  A    between atoms: _352  and  _355
REMARK  146  A    between atoms: _355  and  _356
REMARK  147  A    between atoms: _359  and  _361
REMARK  148  A    between atoms: _361  and  _362
REMARK  149  A    between atoms: _361  and  _364
REMARK  150  A    between atoms: _366  and  _368
REMARK  151  A    between atoms: _368  and  _369
REMARK  152  A    between atoms: _372  and  _374
REMARK  153  A    between atoms: _374  and  _375
REMARK  154  A    between atoms: _374  and  _377
REMARK  155  A    between atoms: _377  and  _378
REMARK  156  A    between atoms: _378  and  _379
REMARK  157  A    between atoms: _379  and  _380
REMARK  158  A    between atoms: _380  and  _381
REMARK  159  A    between atoms: _385  and  _387
REMARK  160  A    between atoms: _387  and  _388
REMARK  161  A    between atoms: _387  and  _390
REMARK  162  A    between atoms: _390  and  _391
REMARK  163  A    between atoms: _394  and  _396
REMARK  164  A    between atoms: _396  and  _397
REMARK  165  A    between atoms: _400  and  _402
REMARK  166  A    between atoms: _402  and  _403
REMARK  167  A    between atoms: _402  and  _405
REMARK  168  A    between atoms: _405  and  _406
REMARK  169  A    between atoms: _406  and  _520
REMARK  170  A    between atoms: _407  and  _409
REMARK  171  A    between atoms: _409  and  _410
REMARK  172  A    between atoms: _409  and  _412
REMARK  173  A    between atoms: _412  and  _413
REMARK  174  A    between atoms: _413  and  _414
REMARK  175  A    between atoms: _414  and  _415
REMARK  176  A    between atoms: _415  and  _416
REMARK  177  A    between atoms: _420  and  _422
REMARK  178  A    between atoms: _422  and  _423
REMARK  179  A    between atoms: _425  and  _427
REMARK  180  A    between atoms: _427  and  _428
REMARK  181  A    between atoms: _427  and  _430
REMARK  182  A    between atoms: _430  and  _431
REMARK  183  A    between atoms: _434  and  _436
REMARK  184  A    between atoms: _436  and  _437
REMARK  185  A    between atoms: _436  and  _439
REMARK  186  A    between atoms: _439  and  _440
REMARK  187  A    between atoms: _442  and  _444
REMARK  188  A    between atoms: _444  and  _445
REMARK  189  A    between atoms: _447  and  _449
REMARK  190  A    between atoms: _449  and  _450
REMARK  191  A    between atoms: _452  and  _454
REMARK  192  A    between atoms: _454  and  _455
REMARK  193  A    between atoms: _454  and  _457
REMARK  194  A    between atoms: _457  and  _458
REMARK  195  A    between atoms: _461  and  _463
REMARK  196  A    between atoms: _463  and  _464
REMARK  197  A    between atoms: _463  and  _466
REMARK  198  A    between atoms: _466  and  _467
REMARK  199  A    between atoms: _470  and  _472
REMARK  200  A    between atoms: _472  and  _473
REMARK  201  A    between atoms: _472  and  _475
REMARK  202  A    between atoms: _475  and  _476
REMARK  203  A    between atoms: _478  and  _480
REMARK  204  A    between atoms: _480  and  _481
REMARK  205  A    between atoms: _480  and  _483
REMARK  206  A    between atoms: _483  and  _484
REMARK  207  A    between atoms: _494  and  _496
REMARK  208  A    between atoms: _496  and  _497
REMARK  209  A    between atoms: _499  and  _501
REMARK  210  A    between atoms: _501  and  _502
REMARK  211  A    between atoms: _501  and  _504
REMARK  212  A    between atoms: _504  and  _505
REMARK  213  A    between atoms: _505  and  _506
REMARK  214  A    between atoms: _509  and  _511
REMARK  215  A    between atoms: _511  and  _512
REMARK  216  A    between atoms: _514  and  _516
REMARK  217  A    between atoms: _516  and  _517
REMARK  218  A    between atoms: _516  and  _519
REMARK  219  A    between atoms: _519  and  _520
REMARK  220  A    between atoms: _521  and  _523
REMARK  221  A    between atoms: _523  and  _524
REMARK  222  A    between atoms: _527  and  _529
REMARK  223  A    between atoms: _529  and  _530
REMARK  224  A    between atoms: _529  and  _532
REMARK  225  A    between atoms: _532  and  _533
REMARK  226  A    between atoms: _533  and  _534
REMARK  227  A    between atoms: _539  and  _541
REMARK  228  A    between atoms: _541  and  _542
REMARK  229  A    between atoms: _541  and  _544
REMARK  230  A    between atoms: _544  and  _545
REMARK  231  A    between atoms: _545  and  _546
REMARK  232  A    between atoms: _546  and  _547
REMARK  233  A    between atoms: _557  and  _558
REMARK  234  A    between atoms: _563  and  _565
REMARK  235  A    between atoms: _565  and  _566
REMARK  236  A    between atoms: _568  and  _570
REMARK  237  A    between atoms: _570  and  _571
REMARK  238  A    between atoms: _570  and  _573
REMARK  239  A    between atoms: _576  and  _578
REMARK  240  A    between atoms: _578  and  _579
REMARK  241  A    between atoms: _578  and  _581
REMARK  242  A    between atoms: _581  and  _582
REMARK  243  A    between atoms: _587  and  _588
REMARK  244  A    between atoms: _590  and  _592
REMARK  245  A    between atoms: _592  and  _593
REMARK  246  A    between atoms: _592  and  _595
REMARK  247  A    between atoms: _595  and  _596
REMARK                            x       y       z     vdW  Elec       q    Type
REMARK                         _______ _______ _______ _____ _____    ______ ____
ROOT
ATOM      1  O   HOH     1      52.474 -24.159  37.513  0.00  0.00    +0.000 OA
ENDROOT
TORSDOF 0
REMARK  Name = ../refined-set-2016/4y8x/4y8x_pocket.pdb
REMARK  247 active torsions:
REMARK  status: ('A' for Active; 'I' for Inactive)
REMARK    1  A    between atoms: _1  and  _5
REMARK    2  A    between atoms: _5  and  _6
REMARK    3  A    between atoms: _5  and  _8
REMARK    4  A    between atoms: _8  and  _9
REMARK    5  A    between atoms: _12  and  _14
REMARK    6  A    between atoms: _14  and  _15
REMARK    7  A    between atoms: _14  and  _17
REMARK    8  A    between atoms: _20  and  _22
REMARK    9  A    between atoms: _22  and  _23
REMARK   10  A    between atoms: _22  and  _25
REMARK   11  A    between atoms: _25  and  _26
REMARK   12  A    between atoms: _29  and  _31
REMARK   13  A    between atoms: _31  and  _32
REMARK   14  A    between atoms: _31  and  _34
REMARK   15  A    between atoms: _34  and  _35
REMARK   16  A    between atoms: _38  and  _40
REMARK   17  A    between atoms: _40  and  _41
REMARK   18  A    between atoms: _40  and  _43
REMARK   19  A    between atoms: _43  and  _44
REMARK   20  A    between atoms: _49  and  _51
REMARK   21  A    between atoms: _51  and  _52
REMARK   22  A    between atoms: _51  and  _54
REMARK   23  A    between atoms: _54  and  _55
REMARK   24  A    between atoms: _58  and  _60
REMARK   25  A    between atoms: _60  and  _61
REMARK   26  A    between atoms: _60  and  _63
REMARK   27  A    between atoms: _63  and  _64
REMARK   28  A    between atoms: _67  and  _69
REMARK   29  A    between atoms: _69  and  _70
REMARK   30  A    between atoms: _69  and  _72
REMARK   31  A    between atoms: _72  and  _73
REMARK   32  A    between atoms: _73  and  _74
REMARK   33  A    between atoms: _79  and  _81
REMARK   34  A    between atoms: _81  and  _82
REMARK   35  A    between atoms: _81  and  _84
REMARK   36  A    between atoms: _84  and  _85
REMARK   37  A    between atoms: _85  and  _86
REMARK   38  A    between atoms: _86  and  _87
REMARK   39  A    between atoms: _96  and  _98
REMARK   40  A    between atoms: _98  and  _99
REMARK   41  A    between atoms: _98  and  _101
REMARK   42  A    between atoms: _101  and  _102
REMARK   43  A    between atoms: _107  and  _109
REMARK   44  A    between atoms: _109  and  _110
REMARK   45  A    between atoms: _109  and  _112
REMARK   46  A    between atoms: _112  and  _113
REMARK   47  A    between atoms: _116  and  _118
REMARK   48  A    between atoms: _118  and  _119
REMARK   49  A    between atoms: _118  and  _121
REMARK   50  A    between atoms: _121  and  _122
REMARK   51  A    between atoms: _122  and  _157
REMARK   52  A    between atoms: _123  and  _125
REMARK   53  A    between atoms: _125  and  _126
REMARK   54  A    between atoms: _128  and  _130
REMARK   55  A    between atoms: _130  and  _131
REMARK   56  A    between atoms: _134  and  _136
REMARK   57  A    between atoms: _136  and  _137
REMARK   58  A    between atoms: _140  and  _142
REMARK   59  A    between atoms: _142  and  _143
REMARK   60  A    between atoms: _142  and  _145
REMARK   61  A    between atoms: _145  and  _146
REMARK   62  A    between atoms: _151  and  _153
REMARK   63  A    between atoms: _153  and  _154
REMARK   64  A    between atoms: _153  and  _156
REMARK   65  A    between atoms: _156  and  _157
REMARK   66  A    between atoms: _158  and  _160
REMARK   67  A    between atoms: _160  and  _161
REMARK   68  A    between atoms: _160  and  _163
REMARK   69  A    between atoms: _163  and  _164
REMARK   70  A    between atoms: _170  and  _172
REMARK   71  A    between atoms: _172  and  _173
REMARK   72  A    between atoms: _172  and  _175
REMARK   73  A    between atoms: _175  and  _176
REMARK   74  A    between atoms: _181  and  _182
REMARK   75  A    between atoms: _184  and  _186
REMARK   76  A    between atoms: _186  and  _187
REMARK   77  A    between atoms: _186  and  _189
REMARK   78  A    between atoms: _192  and  _194
REMARK   79  A    between atoms: _194  and  _195
REMARK   80  A    between atoms: _194  and  _197
REMARK   81  A    between atoms: _197  and  _198
REMARK   82  A    between atoms: _198  and  _199
REMARK   83  A    between atoms: _204  and  _206
REMARK   84  A    between atoms: _206  and  _207
REMARK   85  A    between atoms: _210  and  _212
REMARK   86  A    between atoms: _212  and  _213
REMARK   87  A    between atoms: _212  and  _215
REMARK   88  A    between atoms: _215  and  _216
REMARK   89  A    between atoms: _219  and  _221
REMARK   90  A    between atoms: _221  and  _222
REMARK   91  A    between atoms: _221  and  _224
REMARK   92  A    between atoms: _227  and  _229
REMARK   93  A    between atoms: _229  and  _230
REMARK   94  A    between atoms: _229  and  _232
REMARK   95  A    between atoms: _232  and  _233
REMARK   96  A    between atoms: _243  and  _245
REMARK   97  A    between atoms: _245  and  _246
REMARK   98  A    between atoms: _248  and  _250
REMARK   99  A    between atoms: _250  and  _251
REMARK  100  A    between atoms: _250  and  _253
REMARK  101  A    between atoms: _253  and  _254
REMARK  102  A    between atoms: _259  and  _260
REMARK  103  A    between atoms: _262  and  _264
REMARK  104  A    between atoms: _264  and  _265
REMARK  105  A    between atoms: _264  and  _267
REMARK  106  A    between atoms: _267  and  _268
REMARK  107  A    between atoms: _268  and  _269
REMARK  108  A    between atoms: _269  and  _270
REMARK  109  A    between atoms: _270  and  _271
REMARK  110  A    between atoms: _275  and  _277
REMARK  111  A    between atoms: _277  and  _278
REMARK  112  A    between atoms: _277  and  _280
REMARK  113  A    between atoms: _280  and  _281
REMARK  114  A    between atoms: _284  and  _286
REMARK  115  A    between atoms: _286  and  _287
REMARK  116  A    between atoms: _286  and  _289
REMARK  117  A    between atoms: _289  and  _290
REMARK  118  A    between atoms: _293  and  _295
REMARK  119  A    between atoms: _295  and  _296
REMARK  120  A    between atoms: _295  and  _298
REMARK  121  A    between atoms: _298  and  _299
REMARK  122  A    between atoms: _299  and  _300
REMARK  123  A    between atoms: _300  and  _301
REMARK  124  A    between atoms: _301  and  _302
REMARK  125  A    between atoms: _306  and  _308
REMARK  126  A    between atoms: _308  and  _309
REMARK  127  A    between atoms: _308  and  _311
REMARK  128  A    between atoms: _311  and  _312
REMARK  129  A    between atoms: _315  and  _317
REMARK  130  A    between atoms: _317  and  _318
REMARK  131  A    between atoms: _317  and  _320
REMARK  132  A    between atoms: _320  and  _321
REMARK  133  A    between atoms: _321  and  _322
REMARK  134  A    between atoms: _327  and  _329
REMARK  135  A    between atoms: _329  and  _330
REMARK  136  A    between atoms: _329  and  _332
REMARK  137  A    between atoms: _332  and  _333
REMARK  138  A    between atoms: _336  and  _338
REMARK  139  A    between atoms: _338  and  _339
REMARK  140  A    between atoms: _338  and  _341
REMARK  141  A    between atoms: _341  and  _342
REMARK  142  A    between atoms: _347  and  _348
REMARK  143  A    between atoms: _350  and  _352
REMARK  144  A    between atoms: _352  and  _353
REMARK  145  A    between atoms: _352  and  _355
REMARK  146  A    between atoms: _355  and  _356
REMARK  147  A    between atoms: _359  and  _361
REMARK  148  A    between atoms: _361  and  _362
REMARK  149  A    between atoms: _361  and  _364
REMARK  150  A    between atoms: _366  and  _368
REMARK  151  A    between atoms: _368  and  _369
REMARK  152  A    between atoms: _372  and  _374
REMARK  153  A    between atoms: _374  and  _375
REMARK  154  A    between atoms: _374  and  _377
REMARK  155  A    between atoms: _377  and  _378
REMARK  156  A    between atoms: _378  and  _379
REMARK  157  A    between atoms: _379  and  _380
REMARK  158  A    between atoms: _380  and  _381
REMARK  159  A    between atoms: _385  and  _387
REMARK  160  A    between atoms: _387  and  _388
REMARK  161  A    between atoms: _387  and  _390
REMARK  162  A    between atoms: _390  and  _391
REMARK  163  A    between atoms: _394  and  _396
REMARK  164  A    between atoms: _396  and  _397
REMARK  165  A    between atoms: _400  and  _402
REMARK  166  A    between atoms: _402  and  _403
REMARK  167  A    between atoms: _402  and  _405
REMARK  168  A    between atoms: _405  and  _406
REMARK  169  A    between atoms: _406  and  _520
REMARK  170  A    between atoms: _407  and  _409
REMARK  171  A    between atoms: _409  and  _410
REMARK  172  A    between atoms: _409  and  _412
REMARK  173  A    between atoms: _412  and  _413
REMARK  174  A    between atoms: _413  and  _414
REMARK  175  A    between atoms: _414  and  _415
REMARK  176  A    between atoms: _415  and  _416
REMARK  177  A    between atoms: _420  and  _422
REMARK  178  A    between atoms: _422  and  _423
REMARK  179  A    between atoms: _425  and  _427
REMARK  180  A    between atoms: _427  and  _428
REMARK  181  A    between atoms: _427  and  _430
REMARK  182  A    between atoms: _430  and  _431
REMARK  183  A    between atoms: _434  and  _436
REMARK  184  A    between atoms: _436  and  _437
REMARK  185  A    between atoms: _436  and  _439
REMARK  186  A    between atoms: _439  and  _440
REMARK  187  A    between atoms: _442  and  _444
REMARK  188  A    between atoms: _444  and  _445
REMARK  189  A    between atoms: _447  and  _449
REMARK  190  A    between atoms: _449  and  _450
REMARK  191  A    between atoms: _452  and  _454
REMARK  192  A    between atoms: _454  and  _455
REMARK  193  A    between atoms: _454  and  _457
REMARK  194  A    between atoms: _457  and  _458
REMARK  195  A    between atoms: _461  and  _463
REMARK  196  A    between atoms: _463  and  _464
REMARK  197  A    between atoms: _463  and  _466
REMARK  198  A    between atoms: _466  and  _467
REMARK  199  A    between atoms: _470  and  _472
REMARK  200  A    between atoms: _472  and  _473
REMARK  201  A    between atoms: _472  and  _475
REMARK  202  A    between atoms: _475  and  _476
REMARK  203  A    between atoms: _478  and  _480
REMARK  204  A    between atoms: _480  and  _481
REMARK  205  A    between atoms: _480  and  _483
REMARK  206  A    between atoms: _483  and  _484
REMARK  207  A    between atoms: _494  and  _496
REMARK  208  A    between atoms: _496  and  _497
REMARK  209  A    between atoms: _499  and  _501
REMARK  210  A    between atoms: _501  and  _502
REMARK  211  A    between atoms: _501  and  _504
REMARK  212  A    between atoms: _504  and  _505
REMARK  213  A    between atoms: _505  and  _506
REMARK  214  A    between atoms: _509  and  _511
REMARK  215  A    between atoms: _511  and  _512
REMARK  216  A    between atoms: _514  and  _516
REMARK  217  A    between atoms: _516  and  _517
REMARK  218  A    between atoms: _516  and  _519
REMARK  219  A    between atoms: _519  and  _520
REMARK  220  A    between atoms: _521  and  _523
REMARK  221  A    between atoms: _523  and  _524
REMARK  222  A    between atoms: _527  and  _529
REMARK  223  A    between atoms: _529  and  _530
REMARK  224  A    between atoms: _529  and  _532
REMARK  225  A    between atoms: _532  and  _533
REMARK  226  A    between atoms: _533  and  _534
REMARK  227  A    between atoms: _539  and  _541
REMARK  228  A    between atoms: _541  and  _542
REMARK  229  A    between atoms: _541  and  _544
REMARK  230  A    between atoms: _544  and  _545
REMARK  231  A    between atoms: _545  and  _546
REMARK  232  A    between atoms: _546  and  _547
REMARK  233  A    between atoms: _557  and  _558
REMARK  234  A    between atoms: _563  and  _565
REMARK  235  A    between atoms: _565  and  _566
REMARK  236  A    between atoms: _568  and  _570
REMARK  237  A    between atoms: _570  and  _571
REMARK  238  A    between atoms: _570  and  _573
REMARK  239  A    between atoms: _576  and  _578
REMARK  240  A    between atoms: _578  and  _579
REMARK  241  A    between atoms: _578  and  _581
REMARK  242  A    between atoms: _581  and  _582
REMARK  243  A    between atoms: _587  and  _588
REMARK  244  A    between atoms: _590  and  _592
REMARK  245  A    between atoms: _592  and  _593
REMARK  246  A    between atoms: _592  and  _595
REMARK  247  A    between atoms: _595  and  _596
REMARK                            x       y       z     vdW  Elec       q    Type
REMARK                         _______ _______ _______ _____ _____    ______ ____
ROOT
ATOM      1  O   HOH     1      51.417 -17.890  39.110  0.00  0.00    +0.000 OA
ENDROOT
TORSDOF 0
REMARK  Name = ../refined-set-2016/4y8x/4y8x_pocket.pdb
REMARK  247 active torsions:
REMARK  status: ('A' for Active; 'I' for Inactive)
REMARK    1  A    between atoms: _1  and  _5
REMARK    2  A    between atoms: _5  and  _6
REMARK    3  A    between atoms: _5  and  _8
REMARK    4  A    between atoms: _8  and  _9
REMARK    5  A    between atoms: _12  and  _14
REMARK    6  A    between atoms: _14  and  _15
REMARK    7  A    between atoms: _14  and  _17
REMARK    8  A    between atoms: _20  and  _22
REMARK    9  A    between atoms: _22  and  _23
REMARK   10  A    between atoms: _22  and  _25
REMARK   11  A    between atoms: _25  and  _26
REMARK   12  A    between atoms: _29  and  _31
REMARK   13  A    between atoms: _31  and  _32
REMARK   14  A    between atoms: _31  and  _34
REMARK   15  A    between atoms: _34  and  _35
REMARK   16  A    between atoms: _38  and  _40
REMARK   17  A    between atoms: _40  and  _41
REMARK   18  A    between atoms: _40  and  _43
REMARK   19  A    between atoms: _43  and  _44
REMARK   20  A    between atoms: _49  and  _51
REMARK   21  A    between atoms: _51  and  _52
REMARK   22  A    between atoms: _51  and  _54
REMARK   23  A    between atoms: _54  and  _55
REMARK   24  A    between atoms: _58  and  _60
REMARK   25  A    between atoms: _60  and  _61
REMARK   26  A    between atoms: _60  and  _63
REMARK   27  A    between atoms: _63  and  _64
REMARK   28  A    between atoms: _67  and  _69
REMARK   29  A    between atoms: _69  and  _70
REMARK   30  A    between atoms: _69  and  _72
REMARK   31  A    between atoms: _72  and  _73
REMARK   32  A    between atoms: _73  and  _74
REMARK   33  A    between atoms: _79  and  _81
REMARK   34  A    between atoms: _81  and  _82
REMARK   35  A    between atoms: _81  and  _84
REMARK   36  A    between atoms: _84  and  _85
REMARK   37  A    between atoms: _85  and  _86
REMARK   38  A    between atoms: _86  and  _87
REMARK   39  A    between atoms: _96  and  _98
REMARK   40  A    between atoms: _98  and  _99
REMARK   41  A    between atoms: _98  and  _101
REMARK   42  A    between atoms: _101  and  _102
REMARK   43  A    between atoms: _107  and  _109
REMARK   44  A    between atoms: _109  and  _110
REMARK   45  A    between atoms: _109  and  _112
REMARK   46  A    between atoms: _112  and  _113
REMARK   47  A    between atoms: _116  and  _118
REMARK   48  A    between atoms: _118  and  _119
REMARK   49  A    between atoms: _118  and  _121
REMARK   50  A    between atoms: _121  and  _122
REMARK   51  A    between atoms: _122  and  _157
REMARK   52  A    between atoms: _123  and  _125
REMARK   53  A    between atoms: _125  and  _126
REMARK   54  A    between atoms: _128  and  _130
REMARK   55  A    between atoms: _130  and  _131
REMARK   56  A    between atoms: _134  and  _136
REMARK   57  A    between atoms: _136  and  _137
REMARK   58  A    between atoms: _140  and  _142
REMARK   59  A    between atoms: _142  and  _143
REMARK   60  A    between atoms: _142  and  _145
REMARK   61  A    between atoms: _145  and  _146
REMARK   62  A    between atoms: _151  and  _153
REMARK   63  A    between atoms: _153  and  _154
REMARK   64  A    between atoms: _153  and  _156
REMARK   65  A    between atoms: _156  and  _157
REMARK   66  A    between atoms: _158  and  _160
REMARK   67  A    between atoms: _160  and  _161
REMARK   68  A    between atoms: _160  and  _163
REMARK   69  A    between atoms: _163  and  _164
REMARK   70  A    between atoms: _170  and  _172
REMARK   71  A    between atoms: _172  and  _173
REMARK   72  A    between atoms: _172  and  _175
REMARK   73  A    between atoms: _175  and  _176
REMARK   74  A    between atoms: _181  and  _182
REMARK   75  A    between atoms: _184  and  _186
REMARK   76  A    between atoms: _186  and  _187
REMARK   77  A    between atoms: _186  and  _189
REMARK   78  A    between atoms: _192  and  _194
REMARK   79  A    between atoms: _194  and  _195
REMARK   80  A    between atoms: _194  and  _197
REMARK   81  A    between atoms: _197  and  _198
REMARK   82  A    between atoms: _198  and  _199
REMARK   83  A    between atoms: _204  and  _206
REMARK   84  A    between atoms: _206  and  _207
REMARK   85  A    between atoms: _210  and  _212
REMARK   86  A    between atoms: _212  and  _213
REMARK   87  A    between atoms: _212  and  _215
REMARK   88  A    between atoms: _215  and  _216
REMARK   89  A    between atoms: _219  and  _221
REMARK   90  A    between atoms: _221  and  _222
REMARK   91  A    between atoms: _221  and  _224
REMARK   92  A    between atoms: _227  and  _229
REMARK   93  A    between atoms: _229  and  _230
REMARK   94  A    between atoms: _229  and  _232
REMARK   95  A    between atoms: _232  and  _233
REMARK   96  A    between atoms: _243  and  _245
REMARK   97  A    between atoms: _245  and  _246
REMARK   98  A    between atoms: _248  and  _250
REMARK   99  A    between atoms: _250  and  _251
REMARK  100  A    between atoms: _250  and  _253
REMARK  101  A    between atoms: _253  and  _254
REMARK  102  A    between atoms: _259  and  _260
REMARK  103  A    between atoms: _262  and  _264
REMARK  104  A    between atoms: _264  and  _265
REMARK  105  A    between atoms: _264  and  _267
REMARK  106  A    between atoms: _267  and  _268
REMARK  107  A    between atoms: _268  and  _269
REMARK  108  A    between atoms: _269  and  _270
REMARK  109  A    between atoms: _270  and  _271
REMARK  110  A    between atoms: _275  and  _277
REMARK  111  A    between atoms: _277  and  _278
REMARK  112  A    between atoms: _277  and  _280
REMARK  113  A    between atoms: _280  and  _281
REMARK  114  A    between atoms: _284  and  _286
REMARK  115  A    between atoms: _286  and  _287
REMARK  116  A    between atoms: _286  and  _289
REMARK  117  A    between atoms: _289  and  _290
REMARK  118  A    between atoms: _293  and  _295
REMARK  119  A    between atoms: _295  and  _296
REMARK  120  A    between atoms: _295  and  _298
REMARK  121  A    between atoms: _298  and  _299
REMARK  122  A    between atoms: _299  and  _300
REMARK  123  A    between atoms: _300  and  _301
REMARK  124  A    between atoms: _301  and  _302
REMARK  125  A    between atoms: _306  and  _308
REMARK  126  A    between atoms: _308  and  _309
REMARK  127  A    between atoms: _308  and  _311
REMARK  128  A    between atoms: _311  and  _312
REMARK  129  A    between atoms: _315  and  _317
REMARK  130  A    between atoms: _317  and  _318
REMARK  131  A    between atoms: _317  and  _320
REMARK  132  A    between atoms: _320  and  _321
REMARK  133  A    between atoms: _321  and  _322
REMARK  134  A    between atoms: _327  and  _329
REMARK  135  A    between atoms: _329  and  _330
REMARK  136  A    between atoms: _329  and  _332
REMARK  137  A    between atoms: _332  and  _333
REMARK  138  A    between atoms: _336  and  _338
REMARK  139  A    between atoms: _338  and  _339
REMARK  140  A    between atoms: _338  and  _341
REMARK  141  A    between atoms: _341  and  _342
REMARK  142  A    between atoms: _347  and  _348
REMARK  143  A    between atoms: _350  and  _352
REMARK  144  A    between atoms: _352  and  _353
REMARK  145  A    between atoms: _352  and  _355
REMARK  146  A    between atoms: _355  and  _356
REMARK  147  A    between atoms: _359  and  _361
REMARK  148  A    between atoms: _361  and  _362
REMARK  149  A    between atoms: _361  and  _364
REMARK  150  A    between atoms: _366  and  _368
REMARK  151  A    between atoms: _368  and  _369
REMARK  152  A    between atoms: _372  and  _374
REMARK  153  A    between atoms: _374  and  _375
REMARK  154  A    between atoms: _374  and  _377
REMARK  155  A    between atoms: _377  and  _378
REMARK  156  A    between atoms: _378  and  _379
REMARK  157  A    between atoms: _379  and  _380
REMARK  158  A    between atoms: _380  and  _381
REMARK  159  A    between atoms: _385  and  _387
REMARK  160  A    between atoms: _387  and  _388
REMARK  161  A    between atoms: _387  and  _390
REMARK  162  A    between atoms: _390  and  _391
REMARK  163  A    between atoms: _394  and  _396
REMARK  164  A    between atoms: _396  and  _397
REMARK  165  A    between atoms: _400  and  _402
REMARK  166  A    between atoms: _402  and  _403
REMARK  167  A    between atoms: _402  and  _405
REMARK  168  A    between atoms: _405  and  _406
REMARK  169  A    between atoms: _406  and  _520
REMARK  170  A    between atoms: _407  and  _409
REMARK  171  A    between atoms: _409  and  _410
REMARK  172  A    between atoms: _409  and  _412
REMARK  173  A    between atoms: _412  and  _413
REMARK  174  A    between atoms: _413  and  _414
REMARK  175  A    between atoms: _414  and  _415
REMARK  176  A    between atoms: _415  and  _416
REMARK  177  A    between atoms: _420  and  _422
REMARK  178  A    between atoms: _422  and  _423
REMARK  179  A    between atoms: _425  and  _427
REMARK  180  A    between atoms: _427  and  _428
REMARK  181  A    between atoms: _427  and  _430
REMARK  182  A    between atoms: _430  and  _431
REMARK  183  A    between atoms: _434  and  _436
REMARK  184  A    between atoms: _436  and  _437
REMARK  185  A    between atoms: _436  and  _439
REMARK  186  A    between atoms: _439  and  _440
REMARK  187  A    between atoms: _442  and  _444
REMARK  188  A    between atoms: _444  and  _445
REMARK  189  A    between atoms: _447  and  _449
REMARK  190  A    between atoms: _449  and  _450
REMARK  191  A    between atoms: _452  and  _454
REMARK  192  A    between atoms: _454  and  _455
REMARK  193  A    between atoms: _454  and  _457
REMARK  194  A    between atoms: _457  and  _458
REMARK  195  A    between atoms: _461  and  _463
REMARK  196  A    between atoms: _463  and  _464
REMARK  197  A    between atoms: _463  and  _466
REMARK  198  A    between atoms: _466  and  _467
REMARK  199  A    between atoms: _470  and  _472
REMARK  200  A    between atoms: _472  and  _473
REMARK  201  A    between atoms: _472  and  _475
REMARK  202  A    between atoms: _475  and  _476
REMARK  203  A    between atoms: _478  and  _480
REMARK  204  A    between atoms: _480  and  _481
REMARK  205  A    between atoms: _480  and  _483
REMARK  206  A    between atoms: _483  and  _484
REMARK  207  A    between atoms: _494  and  _496
REMARK  208  A    between atoms: _496  and  _497
REMARK  209  A    between atoms: _499  and  _501
REMARK  210  A    between atoms: _501  and  _502
REMARK  211  A    between atoms: _501  and  _504
REMARK  212  A    between atoms: _504  and  _505
REMARK  213  A    between atoms: _505  and  _506
REMARK  214  A    between atoms: _509  and  _511
REMARK  215  A    between atoms: _511  and  _512
REMARK  216  A    between atoms: _514  and  _516
REMARK  217  A    between atoms: _516  and  _517
REMARK  218  A    between atoms: _516  and  _519
REMARK  219  A    between atoms: _519  and  _520
REMARK  220  A    between atoms: _521  and  _523
REMARK  221  A    between atoms: _523  and  _524
REMARK  222  A    between atoms: _527  and  _529
REMARK  223  A    between atoms: _529  and  _530
REMARK  224  A    between atoms: _529  and  _532
REMARK  225  A    between atoms: _532  and  _533
REMARK  226  A    between atoms: _533  and  _534
REMARK  227  A    between atoms: _539  and  _541
REMARK  228  A    between atoms: _541  and  _542
REMARK  229  A    between atoms: _541  and  _544
REMARK  230  A    between atoms: _544  and  _545
REMARK  231  A    between atoms: _545  and  _546
REMARK  232  A    between atoms: _546  and  _547
REMARK  233  A    between atoms: _557  and  _558
REMARK  234  A    between atoms: _563  and  _565
REMARK  235  A    between atoms: _565  and  _566
REMARK  236  A    between atoms: _568  and  _570
REMARK  237  A    between atoms: _570  and  _571
REMARK  238  A    between atoms: _570  and  _573
REMARK  239  A    between atoms: _576  and  _578
REMARK  240  A    between atoms: _578  and  _579
REMARK  241  A    between atoms: _578  and  _581
REMARK  242  A    between atoms: _581  and  _582
REMARK  243  A    between atoms: _587  and  _588
REMARK  244  A    between atoms: _590  and  _592
REMARK  245  A    between atoms: _592  and  _593
REMARK  246  A    between atoms: _592  and  _595
REMARK  247  A    between atoms: _595  and  _596
REMARK                            x       y       z     vdW  Elec       q    Type
REMARK                         _______ _______ _______ _____ _____    ______ ____
ROOT
ATOM      1  O   HOH     1      33.388  -9.647  30.875  0.00  0.00    +0.000 OA
ENDROOT
TORSDOF 0
REMARK  Name = ../refined-set-2016/4y8x/4y8x_pocket.pdb
REMARK  247 active torsions:
REMARK  status: ('A' for Active; 'I' for Inactive)
REMARK    1  A    between atoms: _1  and  _5
REMARK    2  A    between atoms: _5  and  _6
REMARK    3  A    between atoms: _5  and  _8
REMARK    4  A    between atoms: _8  and  _9
REMARK    5  A    between atoms: _12  and  _14
REMARK    6  A    between atoms: _14  and  _15
REMARK    7  A    between atoms: _14  and  _17
REMARK    8  A    between atoms: _20  and  _22
REMARK    9  A    between atoms: _22  and  _23
REMARK   10  A    between atoms: _22  and  _25
REMARK   11  A    between atoms: _25  and  _26
REMARK   12  A    between atoms: _29  and  _31
REMARK   13  A    between atoms: _31  and  _32
REMARK   14  A    between atoms: _31  and  _34
REMARK   15  A    between atoms: _34  and  _35
REMARK   16  A    between atoms: _38  and  _40
REMARK   17  A    between atoms: _40  and  _41
REMARK   18  A    between atoms: _40  and  _43
REMARK   19  A    between atoms: _43  and  _44
REMARK   20  A    between atoms: _49  and  _51
REMARK   21  A    between atoms: _51  and  _52
REMARK   22  A    between atoms: _51  and  _54
REMARK   23  A    between atoms: _54  and  _55
REMARK   24  A    between atoms: _58  and  _60
REMARK   25  A    between atoms: _60  and  _61
REMARK   26  A    between atoms: _60  and  _63
REMARK   27  A    between atoms: _63  and  _64
REMARK   28  A    between atoms: _67  and  _69
REMARK   29  A    between atoms: _69  and  _70
REMARK   30  A    between atoms: _69  and  _72
REMARK   31  A    between atoms: _72  and  _73
REMARK   32  A    between atoms: _73  and  _74
REMARK   33  A    between atoms: _79  and  _81
REMARK   34  A    between atoms: _81  and  _82
REMARK   35  A    between atoms: _81  and  _84
REMARK   36  A    between atoms: _84  and  _85
REMARK   37  A    between atoms: _85  and  _86
REMARK   38  A    between atoms: _86  and  _87
REMARK   39  A    between atoms: _96  and  _98
REMARK   40  A    between atoms: _98  and  _99
REMARK   41  A    between atoms: _98  and  _101
REMARK   42  A    between atoms: _101  and  _102
REMARK   43  A    between atoms: _107  and  _109
REMARK   44  A    between atoms: _109  and  _110
REMARK   45  A    between atoms: _109  and  _112
REMARK   46  A    between atoms: _112  and  _113
REMARK   47  A    between atoms: _116  and  _118
REMARK   48  A    between atoms: _118  and  _119
REMARK   49  A    between atoms: _118  and  _121
REMARK   50  A    between atoms: _121  and  _122
REMARK   51  A    between atoms: _122  and  _157
REMARK   52  A    between atoms: _123  and  _125
REMARK   53  A    between atoms: _125  and  _126
REMARK   54  A    between atoms: _128  and  _130
REMARK   55  A    between atoms: _130  and  _131
REMARK   56  A    between atoms: _134  and  _136
REMARK   57  A    between atoms: _136  and  _137
REMARK   58  A    between atoms: _140  and  _142
REMARK   59  A    between atoms: _142  and  _143
REMARK   60  A    between atoms: _142  and  _145
REMARK   61  A    between atoms: _145  and  _146
REMARK   62  A    between atoms: _151  and  _153
REMARK   63  A    between atoms: _153  and  _154
REMARK   64  A    between atoms: _153  and  _156
REMARK   65  A    between atoms: _156  and  _157
REMARK   66  A    between atoms: _158  and  _160
REMARK   67  A    between atoms: _160  and  _161
REMARK   68  A    between atoms: _160  and  _163
REMARK   69  A    between atoms: _163  and  _164
REMARK   70  A    between atoms: _170  and  _172
REMARK   71  A    between atoms: _172  and  _173
REMARK   72  A    between atoms: _172  and  _175
REMARK   73  A    between atoms: _175  and  _176
REMARK   74  A    between atoms: _181  and  _182
REMARK   75  A    between atoms: _184  and  _186
REMARK   76  A    between atoms: _186  and  _187
REMARK   77  A    between atoms: _186  and  _189
REMARK   78  A    between atoms: _192  and  _194
REMARK   79  A    between atoms: _194  and  _195
REMARK   80  A    between atoms: _194  and  _197
REMARK   81  A    between atoms: _197  and  _198
REMARK   82  A    between atoms: _198  and  _199
REMARK   83  A    between atoms: _204  and  _206
REMARK   84  A    between atoms: _206  and  _207
REMARK   85  A    between atoms: _210  and  _212
REMARK   86  A    between atoms: _212  and  _213
REMARK   87  A    between atoms: _212  and  _215
REMARK   88  A    between atoms: _215  and  _216
REMARK   89  A    between atoms: _219  and  _221
REMARK   90  A    between atoms: _221  and  _222
REMARK   91  A    between atoms: _221  and  _224
REMARK   92  A    between atoms: _227  and  _229
REMARK   93  A    between atoms: _229  and  _230
REMARK   94  A    between atoms: _229  and  _232
REMARK   95  A    between atoms: _232  and  _233
REMARK   96  A    between atoms: _243  and  _245
REMARK   97  A    between atoms: _245  and  _246
REMARK   98  A    between atoms: _248  and  _250
REMARK   99  A    between atoms: _250  and  _251
REMARK  100  A    between atoms: _250  and  _253
REMARK  101  A    between atoms: _253  and  _254
REMARK  102  A    between atoms: _259  and  _260
REMARK  103  A    between atoms: _262  and  _264
REMARK  104  A    between atoms: _264  and  _265
REMARK  105  A    between atoms: _264  and  _267
REMARK  106  A    between atoms: _267  and  _268
REMARK  107  A    between atoms: _268  and  _269
REMARK  108  A    between atoms: _269  and  _270
REMARK  109  A    between atoms: _270  and  _271
REMARK  110  A    between atoms: _275  and  _277
REMARK  111  A    between atoms: _277  and  _278
REMARK  112  A    between atoms: _277  and  _280
REMARK  113  A    between atoms: _280  and  _281
REMARK  114  A    between atoms: _284  and  _286
REMARK  115  A    between atoms: _286  and  _287
REMARK  116  A    between atoms: _286  and  _289
REMARK  117  A    between atoms: _289  and  _290
REMARK  118  A    between atoms: _293  and  _295
REMARK  119  A    between atoms: _295  and  _296
REMARK  120  A    between atoms: _295  and  _298
REMARK  121  A    between atoms: _298  and  _299
REMARK  122  A    between atoms: _299  and  _300
REMARK  123  A    between atoms: _300  and  _301
REMARK  124  A    between atoms: _301  and  _302
REMARK  125  A    between atoms: _306  and  _308
REMARK  126  A    between atoms: _308  and  _309
REMARK  127  A    between atoms: _308  and  _311
REMARK  128  A    between atoms: _311  and  _312
REMARK  129  A    between atoms: _315  and  _317
REMARK  130  A    between atoms: _317  and  _318
REMARK  131  A    between atoms: _317  and  _320
REMARK  132  A    between atoms: _320  and  _321
REMARK  133  A    between atoms: _321  and  _322
REMARK  134  A    between atoms: _327  and  _329
REMARK  135  A    between atoms: _329  and  _330
REMARK  136  A    between atoms: _329  and  _332
REMARK  137  A    between atoms: _332  and  _333
REMARK  138  A    between atoms: _336  and  _338
REMARK  139  A    between atoms: _338  and  _339
REMARK  140  A    between atoms: _338  and  _341
REMARK  141  A    between atoms: _341  and  _342
REMARK  142  A    between atoms: _347  and  _348
REMARK  143  A    between atoms: _350  and  _352
REMARK  144  A    between atoms: _352  and  _353
REMARK  145  A    between atoms: _352  and  _355
REMARK  146  A    between atoms: _355  and  _356
REMARK  147  A    between atoms: _359  and  _361
REMARK  148  A    between atoms: _361  and  _362
REMARK  149  A    between atoms: _361  and  _364
REMARK  150  A    between atoms: _366  and  _368
REMARK  151  A    between atoms: _368  and  _369
REMARK  152  A    between atoms: _372  and  _374
REMARK  153  A    between atoms: _374  and  _375
REMARK  154  A    between atoms: _374  and  _377
REMARK  155  A    between atoms: _377  and  _378
REMARK  156  A    between atoms: _378  and  _379
REMARK  157  A    between atoms: _379  and  _380
REMARK  158  A    between atoms: _380  and  _381
REMARK  159  A    between atoms: _385  and  _387
REMARK  160  A    between atoms: _387  and  _388
REMARK  161  A    between atoms: _387  and  _390
REMARK  162  A    between atoms: _390  and  _391
REMARK  163  A    between atoms: _394  and  _396
REMARK  164  A    between atoms: _396  and  _397
REMARK  165  A    between atoms: _400  and  _402
REMARK  166  A    between atoms: _402  and  _403
REMARK  167  A    between atoms: _402  and  _405
REMARK  168  A    between atoms: _405  and  _406
REMARK  169  A    between atoms: _406  and  _520
REMARK  170  A    between atoms: _407  and  _409
REMARK  171  A    between atoms: _409  and  _410
REMARK  172  A    between atoms: _409  and  _412
REMARK  173  A    between atoms: _412  and  _413
REMARK  174  A    between atoms: _413  and  _414
REMARK  175  A    between atoms: _414  and  _415
REMARK  176  A    between atoms: _415  and  _416
REMARK  177  A    between atoms: _420  and  _422
REMARK  178  A    between atoms: _422  and  _423
REMARK  179  A    between atoms: _425  and  _427
REMARK  180  A    between atoms: _427  and  _428
REMARK  181  A    between atoms: _427  and  _430
REMARK  182  A    between atoms: _430  and  _431
REMARK  183  A    between atoms: _434  and  _436
REMARK  184  A    between atoms: _436  and  _437
REMARK  185  A    between atoms: _436  and  _439
REMARK  186  A    between atoms: _439  and  _440
REMARK  187  A    between atoms: _442  and  _444
REMARK  188  A    between atoms: _444  and  _445
REMARK  189  A    between atoms: _447  and  _449
REMARK  190  A    between atoms: _449  and  _450
REMARK  191  A    between atoms: _452  and  _454
REMARK  192  A    between atoms: _454  and  _455
REMARK  193  A    between atoms: _454  and  _457
REMARK  194  A    between atoms: _457  and  _458
REMARK  195  A    between atoms: _461  and  _463
REMARK  196  A    between atoms: _463  and  _464
REMARK  197  A    between atoms: _463  and  _466
REMARK  198  A    between atoms: _466  and  _467
REMARK  199  A    between atoms: _470  and  _472
REMARK  200  A    between atoms: _472  and  _473
REMARK  201  A    between atoms: _472  and  _475
REMARK  202  A    between atoms: _475  and  _476
REMARK  203  A    between atoms: _478  and  _480
REMARK  204  A    between atoms: _480  and  _481
REMARK  205  A    between atoms: _480  and  _483
REMARK  206  A    between atoms: _483  and  _484
REMARK  207  A    between atoms: _494  and  _496
REMARK  208  A    between atoms: _496  and  _497
REMARK  209  A    between atoms: _499  and  _501
REMARK  210  A    between atoms: _501  and  _502
REMARK  211  A    between atoms: _501  and  _504
REMARK  212  A    between atoms: _504  and  _505
REMARK  213  A    between atoms: _505  and  _506
REMARK  214  A    between atoms: _509  and  _511
REMARK  215  A    between atoms: _511  and  _512
REMARK  216  A    between atoms: _514  and  _516
REMARK  217  A    between atoms: _516  and  _517
REMARK  218  A    between atoms: _516  and  _519
REMARK  219  A    between atoms: _519  and  _520
REMARK  220  A    between atoms: _521  and  _523
REMARK  221  A    between atoms: _523  and  _524
REMARK  222  A    between atoms: _527  and  _529
REMARK  223  A    between atoms: _529  and  _530
REMARK  224  A    between atoms: _529  and  _532
REMARK  225  A    between atoms: _532  and  _533
REMARK  226  A    between atoms: _533  and  _534
REMARK  227  A    between atoms: _539  and  _541
REMARK  228  A    between atoms: _541  and  _542
REMARK  229  A    between atoms: _541  and  _544
REMARK  230  A    between atoms: _544  and  _545
REMARK  231  A    between atoms: _545  and  _546
REMARK  232  A    between atoms: _546  and  _547
REMARK  233  A    between atoms: _557  and  _558
REMARK  234  A    between atoms: _563  and  _565
REMARK  235  A    between atoms: _565  and  _566
REMARK  236  A    between atoms: _568  and  _570
REMARK  237  A    between atoms: _570  and  _571
REMARK  238  A    between atoms: _570  and  _573
REMARK  239  A    between atoms: _576  and  _578
REMARK  240  A    between atoms: _578  and  _579
REMARK  241  A    between atoms: _578  and  _581
REMARK  242  A    between atoms: _581  and  _582
REMARK  243  A    between atoms: _587  and  _588
REMARK  244  A    between atoms: _590  and  _592
REMARK  245  A    between atoms: _592  and  _593
REMARK  246  A    between atoms: _592  and  _595
REMARK  247  A    between atoms: _595  and  _596
REMARK                            x       y       z     vdW  Elec       q    Type
REMARK                         _______ _______ _______ _____ _____    ______ ____
ROOT
ATOM      1  O   HOH     1      50.893 -20.236  37.938  0.00  0.00    +0.000 OA
ENDROOT
TORSDOF 0
REMARK  Name = ../refined-set-2016/4y8x/4y8x_pocket.pdb
REMARK  247 active torsions:
REMARK  status: ('A' for Active; 'I' for Inactive)
REMARK    1  A    between atoms: _1  and  _5
REMARK    2  A    between atoms: _5  and  _6
REMARK    3  A    between atoms: _5  and  _8
REMARK    4  A    between atoms: _8  and  _9
REMARK    5  A    between atoms: _12  and  _14
REMARK    6  A    between atoms: _14  and  _15
REMARK    7  A    between atoms: _14  and  _17
REMARK    8  A    between atoms: _20  and  _22
REMARK    9  A    between atoms: _22  and  _23
REMARK   10  A    between atoms: _22  and  _25
REMARK   11  A    between atoms: _25  and  _26
REMARK   12  A    between atoms: _29  and  _31
REMARK   13  A    between atoms: _31  and  _32
REMARK   14  A    between atoms: _31  and  _34
REMARK   15  A    between atoms: _34  and  _35
REMARK   16  A    between atoms: _38  and  _40
REMARK   17  A    between atoms: _40  and  _41
REMARK   18  A    between atoms: _40  and  _43
REMARK   19  A    between atoms: _43  and  _44
REMARK   20  A    between atoms: _49  and  _51
REMARK   21  A    between atoms: _51  and  _52
REMARK   22  A    between atoms: _51  and  _54
REMARK   23  A    between atoms: _54  and  _55
REMARK   24  A    between atoms: _58  and  _60
REMARK   25  A    between atoms: _60  and  _61
REMARK   26  A    between atoms: _60  and  _63
REMARK   27  A    between atoms: _63  and  _64
REMARK   28  A    between atoms: _67  and  _69
REMARK   29  A    between atoms: _69  and  _70
REMARK   30  A    between atoms: _69  and  _72
REMARK   31  A    between atoms: _72  and  _73
REMARK   32  A    between atoms: _73  and  _74
REMARK   33  A    between atoms: _79  and  _81
REMARK   34  A    between atoms: _81  and  _82
REMARK   35  A    between atoms: _81  and  _84
REMARK   36  A    between atoms: _84  and  _85
REMARK   37  A    between atoms: _85  and  _86
REMARK   38  A    between atoms: _86  and  _87
REMARK   39  A    between atoms: _96  and  _98
REMARK   40  A    between atoms: _98  and  _99
REMARK   41  A    between atoms: _98  and  _101
REMARK   42  A    between atoms: _101  and  _102
REMARK   43  A    between atoms: _107  and  _109
REMARK   44  A    between atoms: _109  and  _110
REMARK   45  A    between atoms: _109  and  _112
REMARK   46  A    between atoms: _112  and  _113
REMARK   47  A    between atoms: _116  and  _118
REMARK   48  A    between atoms: _118  and  _119
REMARK   49  A    between atoms: _118  and  _121
REMARK   50  A    between atoms: _121  and  _122
REMARK   51  A    between atoms: _122  and  _157
REMARK   52  A    between atoms: _123  and  _125
REMARK   53  A    between atoms: _125  and  _126
REMARK   54  A    between atoms: _128  and  _130
REMARK   55  A    between atoms: _130  and  _131
REMARK   56  A    between atoms: _134  and  _136
REMARK   57  A    between atoms: _136  and  _137
REMARK   58  A    between atoms: _140  and  _142
REMARK   59  A    between atoms: _142  and  _143
REMARK   60  A    between atoms: _142  and  _145
REMARK   61  A    between atoms: _145  and  _146
REMARK   62  A    between atoms: _151  and  _153
REMARK   63  A    between atoms: _153  and  _154
REMARK   64  A    between atoms: _153  and  _156
REMARK   65  A    between atoms: _156  and  _157
REMARK   66  A    between atoms: _158  and  _160
REMARK   67  A    between atoms: _160  and  _161
REMARK   68  A    between atoms: _160  and  _163
REMARK   69  A    between atoms: _163  and  _164
REMARK   70  A    between atoms: _170  and  _172
REMARK   71  A    between atoms: _172  and  _173
REMARK   72  A    between atoms: _172  and  _175
REMARK   73  A    between atoms: _175  and  _176
REMARK   74  A    between atoms: _181  and  _182
REMARK   75  A    between atoms: _184  and  _186
REMARK   76  A    between atoms: _186  and  _187
REMARK   77  A    between atoms: _186  and  _189
REMARK   78  A    between atoms: _192  and  _194
REMARK   79  A    between atoms: _194  and  _195
REMARK   80  A    between atoms: _194  and  _197
REMARK   81  A    between atoms: _197  and  _198
REMARK   82  A    between atoms: _198  and  _199
REMARK   83  A    between atoms: _204  and  _206
REMARK   84  A    between atoms: _206  and  _207
REMARK   85  A    between atoms: _210  and  _212
REMARK   86  A    between atoms: _212  and  _213
REMARK   87  A    between atoms: _212  and  _215
REMARK   88  A    between atoms: _215  and  _216
REMARK   89  A    between atoms: _219  and  _221
REMARK   90  A    between atoms: _221  and  _222
REMARK   91  A    between atoms: _221  and  _224
REMARK   92  A    between atoms: _227  and  _229
REMARK   93  A    between atoms: _229  and  _230
REMARK   94  A    between atoms: _229  and  _232
REMARK   95  A    between atoms: _232  and  _233
REMARK   96  A    between atoms: _243  and  _245
REMARK   97  A    between atoms: _245  and  _246
REMARK   98  A    between atoms: _248  and  _250
REMARK   99  A    between atoms: _250  and  _251
REMARK  100  A    between atoms: _250  and  _253
REMARK  101  A    between atoms: _253  and  _254
REMARK  102  A    between atoms: _259  and  _260
REMARK  103  A    between atoms: _262  and  _264
REMARK  104  A    between atoms: _264  and  _265
REMARK  105  A    between atoms: _264  and  _267
REMARK  106  A    between atoms: _267  and  _268
REMARK  107  A    between atoms: _268  and  _269
REMARK  108  A    between atoms: _269  and  _270
REMARK  109  A    between atoms: _270  and  _271
REMARK  110  A    between atoms: _275  and  _277
REMARK  111  A    between atoms: _277  and  _278
REMARK  112  A    between atoms: _277  and  _280
REMARK  113  A    between atoms: _280  and  _281
REMARK  114  A    between atoms: _284  and  _286
REMARK  115  A    between atoms: _286  and  _287
REMARK  116  A    between atoms: _286  and  _289
REMARK  117  A    between atoms: _289  and  _290
REMARK  118  A    between atoms: _293  and  _295
REMARK  119  A    between atoms: _295  and  _296
REMARK  120  A    between atoms: _295  and  _298
REMARK  121  A    between atoms: _298  and  _299
REMARK  122  A    between atoms: _299  and  _300
REMARK  123  A    between atoms: _300  and  _301
REMARK  124  A    between atoms: _301  and  _302
REMARK  125  A    between atoms: _306  and  _308
REMARK  126  A    between atoms: _308  and  _309
REMARK  127  A    between atoms: _308  and  _311
REMARK  128  A    between atoms: _311  and  _312
REMARK  129  A    between atoms: _315  and  _317
REMARK  130  A    between atoms: _317  and  _318
REMARK  131  A    between atoms: _317  and  _320
REMARK  132  A    between atoms: _320  and  _321
REMARK  133  A    between atoms: _321  and  _322
REMARK  134  A    between atoms: _327  and  _329
REMARK  135  A    between atoms: _329  and  _330
REMARK  136  A    between atoms: _329  and  _332
REMARK  137  A    between atoms: _332  and  _333
REMARK  138  A    between atoms: _336  and  _338
REMARK  139  A    between atoms: _338  and  _339
REMARK  140  A    between atoms: _338  and  _341
REMARK  141  A    between atoms: _341  and  _342
REMARK  142  A    between atoms: _347  and  _348
REMARK  143  A    between atoms: _350  and  _352
REMARK  144  A    between atoms: _352  and  _353
REMARK  145  A    between atoms: _352  and  _355
REMARK  146  A    between atoms: _355  and  _356
REMARK  147  A    between atoms: _359  and  _361
REMARK  148  A    between atoms: _361  and  _362
REMARK  149  A    between atoms: _361  and  _364
REMARK  150  A    between atoms: _366  and  _368
REMARK  151  A    between atoms: _368  and  _369
REMARK  152  A    between atoms: _372  and  _374
REMARK  153  A    between atoms: _374  and  _375
REMARK  154  A    between atoms: _374  and  _377
REMARK  155  A    between atoms: _377  and  _378
REMARK  156  A    between atoms: _378  and  _379
REMARK  157  A    between atoms: _379  and  _380
REMARK  158  A    between atoms: _380  and  _381
REMARK  159  A    between atoms: _385  and  _387
REMARK  160  A    between atoms: _387  and  _388
REMARK  161  A    between atoms: _387  and  _390
REMARK  162  A    between atoms: _390  and  _391
REMARK  163  A    between atoms: _394  and  _396
REMARK  164  A    between atoms: _396  and  _397
REMARK  165  A    between atoms: _400  and  _402
REMARK  166  A    between atoms: _402  and  _403
REMARK  167  A    between atoms: _402  and  _405
REMARK  168  A    between atoms: _405  and  _406
REMARK  169  A    between atoms: _406  and  _520
REMARK  170  A    between atoms: _407  and  _409
REMARK  171  A    between atoms: _409  and  _410
REMARK  172  A    between atoms: _409  and  _412
REMARK  173  A    between atoms: _412  and  _413
REMARK  174  A    between atoms: _413  and  _414
REMARK  175  A    between atoms: _414  and  _415
REMARK  176  A    between atoms: _415  and  _416
REMARK  177  A    between atoms: _420  and  _422
REMARK  178  A    between atoms: _422  and  _423
REMARK  179  A    between atoms: _425  and  _427
REMARK  180  A    between atoms: _427  and  _428
REMARK  181  A    between atoms: _427  and  _430
REMARK  182  A    between atoms: _430  and  _431
REMARK  183  A    between atoms: _434  and  _436
REMARK  184  A    between atoms: _436  and  _437
REMARK  185  A    between atoms: _436  and  _439
REMARK  186  A    between atoms: _439  and  _440
REMARK  187  A    between atoms: _442  and  _444
REMARK  188  A    between atoms: _444  and  _445
REMARK  189  A    between atoms: _447  and  _449
REMARK  190  A    between atoms: _449  and  _450
REMARK  191  A    between atoms: _452  and  _454
REMARK  192  A    between atoms: _454  and  _455
REMARK  193  A    between atoms: _454  and  _457
REMARK  194  A    between atoms: _457  and  _458
REMARK  195  A    between atoms: _461  and  _463
REMARK  196  A    between atoms: _463  and  _464
REMARK  197  A    between atoms: _463  and  _466
REMARK  198  A    between atoms: _466  and  _467
REMARK  199  A    between atoms: _470  and  _472
REMARK  200  A    between atoms: _472  and  _473
REMARK  201  A    between atoms: _472  and  _475
REMARK  202  A    between atoms: _475  and  _476
REMARK  203  A    between atoms: _478  and  _480
REMARK  204  A    between atoms: _480  and  _481
REMARK  205  A    between atoms: _480  and  _483
REMARK  206  A    between atoms: _483  and  _484
REMARK  207  A    between atoms: _494  and  _496
REMARK  208  A    between atoms: _496  and  _497
REMARK  209  A    between atoms: _499  and  _501
REMARK  210  A    between atoms: _501  and  _502
REMARK  211  A    between atoms: _501  and  _504
REMARK  212  A    between atoms: _504  and  _505
REMARK  213  A    between atoms: _505  and  _506
REMARK  214  A    between atoms: _509  and  _511
REMARK  215  A    between atoms: _511  and  _512
REMARK  216  A    between atoms: _514  and  _516
REMARK  217  A    between atoms: _516  and  _517
REMARK  218  A    between atoms: _516  and  _519
REMARK  219  A    between atoms: _519  and  _520
REMARK  220  A    between atoms: _521  and  _523
REMARK  221  A    between atoms: _523  and  _524
REMARK  222  A    between atoms: _527  and  _529
REMARK  223  A    between atoms: _529  and  _530
REMARK  224  A    between atoms: _529  and  _532
REMARK  225  A    between atoms: _532  and  _533
REMARK  226  A    between atoms: _533  and  _534
REMARK  227  A    between atoms: _539  and  _541
REMARK  228  A    between atoms: _541  and  _542
REMARK  229  A    between atoms: _541  and  _544
REMARK  230  A    between atoms: _544  and  _545
REMARK  231  A    between atoms: _545  and  _546
REMARK  232  A    between atoms: _546  and  _547
REMARK  233  A    between atoms: _557  and  _558
REMARK  234  A    between atoms: _563  and  _565
REMARK  235  A    between atoms: _565  and  _566
REMARK  236  A    between atoms: _568  and  _570
REMARK  237  A    between atoms: _570  and  _571
REMARK  238  A    between atoms: _570  and  _573
REMARK  239  A    between atoms: _576  and  _578
REMARK  240  A    between atoms: _578  and  _579
REMARK  241  A    between atoms: _578  and  _581
REMARK  242  A    between atoms: _581  and  _582
REMARK  243  A    between atoms: _587  and  _588
REMARK  244  A    between atoms: _590  and  _592
REMARK  245  A    between atoms: _592  and  _593
REMARK  246  A    between atoms: _592  and  _595
REMARK  247  A    between atoms: _595  and  _596
REMARK                            x       y       z     vdW  Elec       q    Type
REMARK                         _______ _______ _______ _____ _____    ______ ____
ROOT
ATOM      1  O   HOH     1      51.275 -18.795  29.770  0.00  0.00    +0.000 OA
ENDROOT
TORSDOF 0
REMARK  Name = ../refined-set-2016/4y8x/4y8x_pocket.pdb
REMARK  247 active torsions:
REMARK  status: ('A' for Active; 'I' for Inactive)
REMARK    1  A    between atoms: _1  and  _5
REMARK    2  A    between atoms: _5  and  _6
REMARK    3  A    between atoms: _5  and  _8
REMARK    4  A    between atoms: _8  and  _9
REMARK    5  A    between atoms: _12  and  _14
REMARK    6  A    between atoms: _14  and  _15
REMARK    7  A    between atoms: _14  and  _17
REMARK    8  A    between atoms: _20  and  _22
REMARK    9  A    between atoms: _22  and  _23
REMARK   10  A    between atoms: _22  and  _25
REMARK   11  A    between atoms: _25  and  _26
REMARK   12  A    between atoms: _29  and  _31
REMARK   13  A    between atoms: _31  and  _32
REMARK   14  A    between atoms: _31  and  _34
REMARK   15  A    between atoms: _34  and  _35
REMARK   16  A    between atoms: _38  and  _40
REMARK   17  A    between atoms: _40  and  _41
REMARK   18  A    between atoms: _40  and  _43
REMARK   19  A    between atoms: _43  and  _44
REMARK   20  A    between atoms: _49  and  _51
REMARK   21  A    between atoms: _51  and  _52
REMARK   22  A    between atoms: _51  and  _54
REMARK   23  A    between atoms: _54  and  _55
REMARK   24  A    between atoms: _58  and  _60
REMARK   25  A    between atoms: _60  and  _61
REMARK   26  A    between atoms: _60  and  _63
REMARK   27  A    between atoms: _63  and  _64
REMARK   28  A    between atoms: _67  and  _69
REMARK   29  A    between atoms: _69  and  _70
REMARK   30  A    between atoms: _69  and  _72
REMARK   31  A    between atoms: _72  and  _73
REMARK   32  A    between atoms: _73  and  _74
REMARK   33  A    between atoms: _79  and  _81
REMARK   34  A    between atoms: _81  and  _82
REMARK   35  A    between atoms: _81  and  _84
REMARK   36  A    between atoms: _84  and  _85
REMARK   37  A    between atoms: _85  and  _86
REMARK   38  A    between atoms: _86  and  _87
REMARK   39  A    between atoms: _96  and  _98
REMARK   40  A    between atoms: _98  and  _99
REMARK   41  A    between atoms: _98  and  _101
REMARK   42  A    between atoms: _101  and  _102
REMARK   43  A    between atoms: _107  and  _109
REMARK   44  A    between atoms: _109  and  _110
REMARK   45  A    between atoms: _109  and  _112
REMARK   46  A    between atoms: _112  and  _113
REMARK   47  A    between atoms: _116  and  _118
REMARK   48  A    between atoms: _118  and  _119
REMARK   49  A    between atoms: _118  and  _121
REMARK   50  A    between atoms: _121  and  _122
REMARK   51  A    between atoms: _122  and  _157
REMARK   52  A    between atoms: _123  and  _125
REMARK   53  A    between atoms: _125  and  _126
REMARK   54  A    between atoms: _128  and  _130
REMARK   55  A    between atoms: _130  and  _131
REMARK   56  A    between atoms: _134  and  _136
REMARK   57  A    between atoms: _136  and  _137
REMARK   58  A    between atoms: _140  and  _142
REMARK   59  A    between atoms: _142  and  _143
REMARK   60  A    between atoms: _142  and  _145
REMARK   61  A    between atoms: _145  and  _146
REMARK   62  A    between atoms: _151  and  _153
REMARK   63  A    between atoms: _153  and  _154
REMARK   64  A    between atoms: _153  and  _156
REMARK   65  A    between atoms: _156  and  _157
REMARK   66  A    between atoms: _158  and  _160
REMARK   67  A    between atoms: _160  and  _161
REMARK   68  A    between atoms: _160  and  _163
REMARK   69  A    between atoms: _163  and  _164
REMARK   70  A    between atoms: _170  and  _172
REMARK   71  A    between atoms: _172  and  _173
REMARK   72  A    between atoms: _172  and  _175
REMARK   73  A    between atoms: _175  and  _176
REMARK   74  A    between atoms: _181  and  _182
REMARK   75  A    between atoms: _184  and  _186
REMARK   76  A    between atoms: _186  and  _187
REMARK   77  A    between atoms: _186  and  _189
REMARK   78  A    between atoms: _192  and  _194
REMARK   79  A    between atoms: _194  and  _195
REMARK   80  A    between atoms: _194  and  _197
REMARK   81  A    between atoms: _197  and  _198
REMARK   82  A    between atoms: _198  and  _199
REMARK   83  A    between atoms: _204  and  _206
REMARK   84  A    between atoms: _206  and  _207
REMARK   85  A    between atoms: _210  and  _212
REMARK   86  A    between atoms: _212  and  _213
REMARK   87  A    between atoms: _212  and  _215
REMARK   88  A    between atoms: _215  and  _216
REMARK   89  A    between atoms: _219  and  _221
REMARK   90  A    between atoms: _221  and  _222
REMARK   91  A    between atoms: _221  and  _224
REMARK   92  A    between atoms: _227  and  _229
REMARK   93  A    between atoms: _229  and  _230
REMARK   94  A    between atoms: _229  and  _232
REMARK   95  A    between atoms: _232  and  _233
REMARK   96  A    between atoms: _243  and  _245
REMARK   97  A    between atoms: _245  and  _246
REMARK   98  A    between atoms: _248  and  _250
REMARK   99  A    between atoms: _250  and  _251
REMARK  100  A    between atoms: _250  and  _253
REMARK  101  A    between atoms: _253  and  _254
REMARK  102  A    between atoms: _259  and  _260
REMARK  103  A    between atoms: _262  and  _264
REMARK  104  A    between atoms: _264  and  _265
REMARK  105  A    between atoms: _264  and  _267
REMARK  106  A    between atoms: _267  and  _268
REMARK  107  A    between atoms: _268  and  _269
REMARK  108  A    between atoms: _269  and  _270
REMARK  109  A    between atoms: _270  and  _271
REMARK  110  A    between atoms: _275  and  _277
REMARK  111  A    between atoms: _277  and  _278
REMARK  112  A    between atoms: _277  and  _280
REMARK  113  A    between atoms: _280  and  _281
REMARK  114  A    between atoms: _284  and  _286
REMARK  115  A    between atoms: _286  and  _287
REMARK  116  A    between atoms: _286  and  _289
REMARK  117  A    between atoms: _289  and  _290
REMARK  118  A    between atoms: _293  and  _295
REMARK  119  A    between atoms: _295  and  _296
REMARK  120  A    between atoms: _295  and  _298
REMARK  121  A    between atoms: _298  and  _299
REMARK  122  A    between atoms: _299  and  _300
REMARK  123  A    between atoms: _300  and  _301
REMARK  124  A    between atoms: _301  and  _302
REMARK  125  A    between atoms: _306  and  _308
REMARK  126  A    between atoms: _308  and  _309
REMARK  127  A    between atoms: _308  and  _311
REMARK  128  A    between atoms: _311  and  _312
REMARK  129  A    between atoms: _315  and  _317
REMARK  130  A    between atoms: _317  and  _318
REMARK  131  A    between atoms: _317  and  _320
REMARK  132  A    between atoms: _320  and  _321
REMARK  133  A    between atoms: _321  and  _322
REMARK  134  A    between atoms: _327  and  _329
REMARK  135  A    between atoms: _329  and  _330
REMARK  136  A    between atoms: _329  and  _332
REMARK  137  A    between atoms: _332  and  _333
REMARK  138  A    between atoms: _336  and  _338
REMARK  139  A    between atoms: _338  and  _339
REMARK  140  A    between atoms: _338  and  _341
REMARK  141  A    between atoms: _341  and  _342
REMARK  142  A    between atoms: _347  and  _348
REMARK  143  A    between atoms: _350  and  _352
REMARK  144  A    between atoms: _352  and  _353
REMARK  145  A    between atoms: _352  and  _355
REMARK  146  A    between atoms: _355  and  _356
REMARK  147  A    between atoms: _359  and  _361
REMARK  148  A    between atoms: _361  and  _362
REMARK  149  A    between atoms: _361  and  _364
REMARK  150  A    between atoms: _366  and  _368
REMARK  151  A    between atoms: _368  and  _369
REMARK  152  A    between atoms: _372  and  _374
REMARK  153  A    between atoms: _374  and  _375
REMARK  154  A    between atoms: _374  and  _377
REMARK  155  A    between atoms: _377  and  _378
REMARK  156  A    between atoms: _378  and  _379
REMARK  157  A    between atoms: _379  and  _380
REMARK  158  A    between atoms: _380  and  _381
REMARK  159  A    between atoms: _385  and  _387
REMARK  160  A    between atoms: _387  and  _388
REMARK  161  A    between atoms: _387  and  _390
REMARK  162  A    between atoms: _390  and  _391
REMARK  163  A    between atoms: _394  and  _396
REMARK  164  A    between atoms: _396  and  _397
REMARK  165  A    between atoms: _400  and  _402
REMARK  166  A    between atoms: _402  and  _403
REMARK  167  A    between atoms: _402  and  _405
REMARK  168  A    between atoms: _405  and  _406
REMARK  169  A    between atoms: _406  and  _520
REMARK  170  A    between atoms: _407  and  _409
REMARK  171  A    between atoms: _409  and  _410
REMARK  172  A    between atoms: _409  and  _412
REMARK  173  A    between atoms: _412  and  _413
REMARK  174  A    between atoms: _413  and  _414
REMARK  175  A    between atoms: _414  and  _415
REMARK  176  A    between atoms: _415  and  _416
REMARK  177  A    between atoms: _420  and  _422
REMARK  178  A    between atoms: _422  and  _423
REMARK  179  A    between atoms: _425  and  _427
REMARK  180  A    between atoms: _427  and  _428
REMARK  181  A    between atoms: _427  and  _430
REMARK  182  A    between atoms: _430  and  _431
REMARK  183  A    between atoms: _434  and  _436
REMARK  184  A    between atoms: _436  and  _437
REMARK  185  A    between atoms: _436  and  _439
REMARK  186  A    between atoms: _439  and  _440
REMARK  187  A    between atoms: _442  and  _444
REMARK  188  A    between atoms: _444  and  _445
REMARK  189  A    between atoms: _447  and  _449
REMARK  190  A    between atoms: _449  and  _450
REMARK  191  A    between atoms: _452  and  _454
REMARK  192  A    between atoms: _454  and  _455
REMARK  193  A    between atoms: _454  and  _457
REMARK  194  A    between atoms: _457  and  _458
REMARK  195  A    between atoms: _461  and  _463
REMARK  196  A    between atoms: _463  and  _464
REMARK  197  A    between atoms: _463  and  _466
REMARK  198  A    between atoms: _466  and  _467
REMARK  199  A    between atoms: _470  and  _472
REMARK  200  A    between atoms: _472  and  _473
REMARK  201  A    between atoms: _472  and  _475
REMARK  202  A    between atoms: _475  and  _476
REMARK  203  A    between atoms: _478  and  _480
REMARK  204  A    between atoms: _480  and  _481
REMARK  205  A    between atoms: _480  and  _483
REMARK  206  A    between atoms: _483  and  _484
REMARK  207  A    between atoms: _494  and  _496
REMARK  208  A    between atoms: _496  and  _497
REMARK  209  A    between atoms: _499  and  _501
REMARK  210  A    between atoms: _501  and  _502
REMARK  211  A    between atoms: _501  and  _504
REMARK  212  A    between atoms: _504  and  _505
REMARK  213  A    between atoms: _505  and  _506
REMARK  214  A    between atoms: _509  and  _511
REMARK  215  A    between atoms: _511  and  _512
REMARK  216  A    between atoms: _514  and  _516
REMARK  217  A    between atoms: _516  and  _517
REMARK  218  A    between atoms: _516  and  _519
REMARK  219  A    between atoms: _519  and  _520
REMARK  220  A    between atoms: _521  and  _523
REMARK  221  A    between atoms: _523  and  _524
REMARK  222  A    between atoms: _527  and  _529
REMARK  223  A    between atoms: _529  and  _530
REMARK  224  A    between atoms: _529  and  _532
REMARK  225  A    between atoms: _532  and  _533
REMARK  226  A    between atoms: _533  and  _534
REMARK  227  A    between atoms: _539  and  _541
REMARK  228  A    between atoms: _541  and  _542
REMARK  229  A    between atoms: _541  and  _544
REMARK  230  A    between atoms: _544  and  _545
REMARK  231  A    between atoms: _545  and  _546
REMARK  232  A    between atoms: _546  and  _547
REMARK  233  A    between atoms: _557  and  _558
REMARK  234  A    between atoms: _563  and  _565
REMARK  235  A    between atoms: _565  and  _566
REMARK  236  A    between atoms: _568  and  _570
REMARK  237  A    between atoms: _570  and  _571
REMARK  238  A    between atoms: _570  and  _573
REMARK  239  A    between atoms: _576  and  _578
REMARK  240  A    between atoms: _578  and  _579
REMARK  241  A    between atoms: _578  and  _581
REMARK  242  A    between atoms: _581  and  _582
REMARK  243  A    between atoms: _587  and  _588
REMARK  244  A    between atoms: _590  and  _592
REMARK  245  A    between atoms: _592  and  _593
REMARK  246  A    between atoms: _592  and  _595
REMARK  247  A    between atoms: _595  and  _596
REMARK                            x       y       z     vdW  Elec       q    Type
REMARK                         _______ _______ _______ _____ _____    ______ ____
ROOT
ATOM      1  O   HOH     1      53.141 -19.046  33.961  0.00  0.00    +0.000 OA
ENDROOT
TORSDOF 0
