REMARK  Name = ../refined-set-2016/1c5p/1c5p_pocket.pdb
REMARK  121 active torsions:
REMARK  status: ('A' for Active; 'I' for Inactive)
REMARK    1  A    between atoms: _1  and  _5
REMARK    2  A    between atoms: _5  and  _6
REMARK    3  A    between atoms: _5  and  _8
REMARK    4  A    between atoms: _8  and  _9
REMARK    5  A    between atoms: _12  and  _14
REMARK    6  A    between atoms: _14  and  _15
REMARK    7  A    between atoms: _14  and  _17
REMARK    8  A    between atoms: _20  and  _22
REMARK    9  A    between atoms: _22  and  _23
REMARK   10  A    between atoms: _22  and  _25
REMARK   11  A    between atoms: _25  and  _26
REMARK   12  A    between atoms: _31  and  _33
REMARK   13  A    between atoms: _33  and  _34
REMARK   14  A    between atoms: _33  and  _36
REMARK   15  A    between atoms: _36  and  _37
REMARK   16  A    between atoms: _40  and  _42
REMARK   17  A    between atoms: _42  and  _43
REMARK   18  A    between atoms: _42  and  _45
REMARK   19  A    between atoms: _45  and  _46
REMARK   20  A    between atoms: _49  and  _51
REMARK   21  A    between atoms: _51  and  _52
REMARK   22  A    between atoms: _51  and  _54
REMARK   23  A    between atoms: _54  and  _55
REMARK   24  A    between atoms: _60  and  _62
REMARK   25  A    between atoms: _62  and  _63
REMARK   26  A    between atoms: _62  and  _65
REMARK   27  A    between atoms: _65  and  _66
REMARK   28  A    between atoms: _71  and  _72
REMARK   29  A    between atoms: _74  and  _76
REMARK   30  A    between atoms: _76  and  _77
REMARK   31  A    between atoms: _80  and  _82
REMARK   32  A    between atoms: _82  and  _83
REMARK   33  A    between atoms: _82  and  _85
REMARK   34  A    between atoms: _85  and  _86
REMARK   35  A    between atoms: _86  and  _87
REMARK   36  A    between atoms: _87  and  _88
REMARK   37  A    between atoms: _88  and  _89
REMARK   38  A    between atoms: _93  and  _95
REMARK   39  A    between atoms: _95  and  _96
REMARK   40  A    between atoms: _95  and  _98
REMARK   41  A    between atoms: _98  and  _99
REMARK   42  A    between atoms: _102  and  _104
REMARK   43  A    between atoms: _104  and  _105
REMARK   44  A    between atoms: _104  and  _107
REMARK   45  A    between atoms: _107  and  _108
REMARK   46  A    between atoms: _110  and  _112
REMARK   47  A    between atoms: _112  and  _113
REMARK   48  A    between atoms: _112  and  _115
REMARK   49  A    between atoms: _115  and  _116
REMARK   50  A    between atoms: _116  and  _226
REMARK   51  A    between atoms: _117  and  _119
REMARK   52  A    between atoms: _119  and  _120
REMARK   53  A    between atoms: _119  and  _122
REMARK   54  A    between atoms: _122  and  _123
REMARK   55  A    between atoms: _123  and  _124
REMARK   56  A    between atoms: _129  and  _131
REMARK   57  A    between atoms: _131  and  _132
REMARK   58  A    between atoms: _134  and  _136
REMARK   59  A    between atoms: _136  and  _137
REMARK   60  A    between atoms: _136  and  _139
REMARK   61  A    between atoms: _139  and  _140
REMARK   62  A    between atoms: _143  and  _145
REMARK   63  A    between atoms: _145  and  _146
REMARK   64  A    between atoms: _145  and  _148
REMARK   65  A    between atoms: _148  and  _149
REMARK   66  A    between atoms: _151  and  _153
REMARK   67  A    between atoms: _153  and  _154
REMARK   68  A    between atoms: _156  and  _158
REMARK   69  A    between atoms: _158  and  _159
REMARK   70  A    between atoms: _161  and  _163
REMARK   71  A    between atoms: _163  and  _164
REMARK   72  A    between atoms: _163  and  _166
REMARK   73  A    between atoms: _166  and  _167
REMARK   74  A    between atoms: _170  and  _172
REMARK   75  A    between atoms: _172  and  _173
REMARK   76  A    between atoms: _172  and  _175
REMARK   77  A    between atoms: _178  and  _180
REMARK   78  A    between atoms: _180  and  _181
REMARK   79  A    between atoms: _180  and  _183
REMARK   80  A    between atoms: _183  and  _184
REMARK   81  A    between atoms: _186  and  _188
REMARK   82  A    between atoms: _188  and  _189
REMARK   83  A    between atoms: _188  and  _191
REMARK   84  A    between atoms: _191  and  _192
REMARK   85  A    between atoms: _202  and  _204
REMARK   86  A    between atoms: _204  and  _205
REMARK   87  A    between atoms: _207  and  _209
REMARK   88  A    between atoms: _209  and  _210
REMARK   89  A    between atoms: _209  and  _212
REMARK   90  A    between atoms: _212  and  _213
REMARK   91  A    between atoms: _215  and  _217
REMARK   92  A    between atoms: _217  and  _218
REMARK   93  A    between atoms: _220  and  _222
REMARK   94  A    between atoms: _222  and  _223
REMARK   95  A    between atoms: _222  and  _225
REMARK   96  A    between atoms: _225  and  _226
REMARK   97  A    between atoms: _227  and  _229
REMARK   98  A    between atoms: _229  and  _230
REMARK   99  A    between atoms: _233  and  _235
REMARK  100  A    between atoms: _235  and  _236
REMARK  101  A    between atoms: _235  and  _238
REMARK  102  A    between atoms: _238  and  _239
REMARK  103  A    between atoms: _239  and  _240
REMARK  104  A    between atoms: _245  and  _247
REMARK  105  A    between atoms: _247  and  _248
REMARK  106  A    between atoms: _247  and  _250
REMARK  107  A    between atoms: _250  and  _251
REMARK  108  A    between atoms: _251  and  _252
REMARK  109  A    between atoms: _252  and  _253
REMARK  110  A    between atoms: _253  and  _254
REMARK  111  A    between atoms: _259  and  _260
REMARK  112  A    between atoms: _265  and  _267
REMARK  113  A    between atoms: _267  and  _268
REMARK  114  A    between atoms: _270  and  _272
REMARK  115  A    between atoms: _272  and  _273
REMARK  116  A    between atoms: _272  and  _275
REMARK  117  A    between atoms: _278  and  _280
REMARK  118  A    between atoms: _280  and  _281
REMARK  119  A    between atoms: _280  and  _283
REMARK  120  A    between atoms: _283  and  _284
REMARK  121  A    between atoms: _289  and  _290
REMARK                            x       y       z     vdW  Elec       q    Type
REMARK                         _______ _______ _______ _____ _____    ______ ____
ROOT
ATOM      1  C   ILE A   1      53.034  14.500  49.955  0.00  0.00    +0.202 C 
ATOM      2  N   VAL A   2      52.904  14.389  51.240  0.00  0.00    -0.301 N 
ATOM      3  H   VAL A   2      51.948  14.292  51.637  0.00  0.00    +0.150 HD
ATOM      4  O   ILE A   1      54.083  14.607  49.355  0.00  0.00    -0.277 OA
ENDROOT
BRANCH   1   5
ATOM      5  CA  ILE A   1      51.744  14.478  49.144  0.00  0.00    +0.013 C 
BRANCH   5   6
ATOM      6  N   ILE A   1      51.860  15.667  48.258  0.00  0.00    +0.387 N 
ATOM      7  H1  ILE A   1      51.944  16.525  48.840  0.00  0.00    -0.089 HD
ATOM      8  H2  ILE A   1      51.013  15.735  47.659  0.00  0.00    -0.089 HD
ATOM      9  H3  ILE A   1      52.704  15.570  47.658  0.00  0.00    -0.089 HD
ENDBRANCH   5   6
BRANCH   5  10
ATOM     10  CB  ILE A   1      51.689  13.166  48.299  0.00  0.00    -0.011 C 
ATOM     11  CG2 ILE A   1      51.718  11.921  49.258  0.00  0.00    -0.002 C 
BRANCH  10  12
ATOM     12  CG1 ILE A   1      50.460  13.081  47.290  0.00  0.00    -0.002 C 
ATOM     13  CD1 ILE A   1      49.069  12.863  47.987  0.00  0.00    -0.000 C 
ENDBRANCH  10  12
ENDBRANCH   5  10
ENDBRANCH   1   5
BRANCH   2  14
ATOM     14  CA  VAL A   2      54.067  14.394  52.174  0.00  0.00    +0.137 C 
BRANCH  14  15
ATOM     15  CB  VAL A   2      53.755  15.351  53.346  0.00  0.00    +0.026 C 
ATOM     16  CG2 VAL A   2      54.947  15.436  54.312  0.00  0.00    +0.002 C 
ATOM     17  CG1 VAL A   2      53.300  16.759  52.873  0.00  0.00    +0.002 C 
ENDBRANCH  14  15
BRANCH  14  18
ATOM     18  C   VAL A   2      54.223  12.946  52.712  0.00  0.00    +0.227 C 
ATOM     19  O   VAL A   2      53.239  12.340  53.100  0.00  0.00    -0.286 OA
ENDBRANCH  14  18
ENDBRANCH   2  14
TORSDOF 7
REMARK  Name = ../refined-set-2016/1c5p/1c5p_pocket.pdb
REMARK  121 active torsions:
REMARK  status: ('A' for Active; 'I' for Inactive)
REMARK    1  A    between atoms: _1  and  _5
REMARK    2  A    between atoms: _5  and  _6
REMARK    3  A    between atoms: _5  and  _8
REMARK    4  A    between atoms: _8  and  _9
REMARK    5  A    between atoms: _12  and  _14
REMARK    6  A    between atoms: _14  and  _15
REMARK    7  A    between atoms: _14  and  _17
REMARK    8  A    between atoms: _20  and  _22
REMARK    9  A    between atoms: _22  and  _23
REMARK   10  A    between atoms: _22  and  _25
REMARK   11  A    between atoms: _25  and  _26
REMARK   12  A    between atoms: _31  and  _33
REMARK   13  A    between atoms: _33  and  _34
REMARK   14  A    between atoms: _33  and  _36
REMARK   15  A    between atoms: _36  and  _37
REMARK   16  A    between atoms: _40  and  _42
REMARK   17  A    between atoms: _42  and  _43
REMARK   18  A    between atoms: _42  and  _45
REMARK   19  A    between atoms: _45  and  _46
REMARK   20  A    between atoms: _49  and  _51
REMARK   21  A    between atoms: _51  and  _52
REMARK   22  A    between atoms: _51  and  _54
REMARK   23  A    between atoms: _54  and  _55
REMARK   24  A    between atoms: _60  and  _62
REMARK   25  A    between atoms: _62  and  _63
REMARK   26  A    between atoms: _62  and  _65
REMARK   27  A    between atoms: _65  and  _66
REMARK   28  A    between atoms: _71  and  _72
REMARK   29  A    between atoms: _74  and  _76
REMARK   30  A    between atoms: _76  and  _77
REMARK   31  A    between atoms: _80  and  _82
REMARK   32  A    between atoms: _82  and  _83
REMARK   33  A    between atoms: _82  and  _85
REMARK   34  A    between atoms: _85  and  _86
REMARK   35  A    between atoms: _86  and  _87
REMARK   36  A    between atoms: _87  and  _88
REMARK   37  A    between atoms: _88  and  _89
REMARK   38  A    between atoms: _93  and  _95
REMARK   39  A    between atoms: _95  and  _96
REMARK   40  A    between atoms: _95  and  _98
REMARK   41  A    between atoms: _98  and  _99
REMARK   42  A    between atoms: _102  and  _104
REMARK   43  A    between atoms: _104  and  _105
REMARK   44  A    between atoms: _104  and  _107
REMARK   45  A    between atoms: _107  and  _108
REMARK   46  A    between atoms: _110  and  _112
REMARK   47  A    between atoms: _112  and  _113
REMARK   48  A    between atoms: _112  and  _115
REMARK   49  A    between atoms: _115  and  _116
REMARK   50  A    between atoms: _116  and  _226
REMARK   51  A    between atoms: _117  and  _119
REMARK   52  A    between atoms: _119  and  _120
REMARK   53  A    between atoms: _119  and  _122
REMARK   54  A    between atoms: _122  and  _123
REMARK   55  A    between atoms: _123  and  _124
REMARK   56  A    between atoms: _129  and  _131
REMARK   57  A    between atoms: _131  and  _132
REMARK   58  A    between atoms: _134  and  _136
REMARK   59  A    between atoms: _136  and  _137
REMARK   60  A    between atoms: _136  and  _139
REMARK   61  A    between atoms: _139  and  _140
REMARK   62  A    between atoms: _143  and  _145
REMARK   63  A    between atoms: _145  and  _146
REMARK   64  A    between atoms: _145  and  _148
REMARK   65  A    between atoms: _148  and  _149
REMARK   66  A    between atoms: _151  and  _153
REMARK   67  A    between atoms: _153  and  _154
REMARK   68  A    between atoms: _156  and  _158
REMARK   69  A    between atoms: _158  and  _159
REMARK   70  A    between atoms: _161  and  _163
REMARK   71  A    between atoms: _163  and  _164
REMARK   72  A    between atoms: _163  and  _166
REMARK   73  A    between atoms: _166  and  _167
REMARK   74  A    between atoms: _170  and  _172
REMARK   75  A    between atoms: _172  and  _173
REMARK   76  A    between atoms: _172  and  _175
REMARK   77  A    between atoms: _178  and  _180
REMARK   78  A    between atoms: _180  and  _181
REMARK   79  A    between atoms: _180  and  _183
REMARK   80  A    between atoms: _183  and  _184
REMARK   81  A    between atoms: _186  and  _188
REMARK   82  A    between atoms: _188  and  _189
REMARK   83  A    between atoms: _188  and  _191
REMARK   84  A    between atoms: _191  and  _192
REMARK   85  A    between atoms: _202  and  _204
REMARK   86  A    between atoms: _204  and  _205
REMARK   87  A    between atoms: _207  and  _209
REMARK   88  A    between atoms: _209  and  _210
REMARK   89  A    between atoms: _209  and  _212
REMARK   90  A    between atoms: _212  and  _213
REMARK   91  A    between atoms: _215  and  _217
REMARK   92  A    between atoms: _217  and  _218
REMARK   93  A    between atoms: _220  and  _222
REMARK   94  A    between atoms: _222  and  _223
REMARK   95  A    between atoms: _222  and  _225
REMARK   96  A    between atoms: _225  and  _226
REMARK   97  A    between atoms: _227  and  _229
REMARK   98  A    between atoms: _229  and  _230
REMARK   99  A    between atoms: _233  and  _235
REMARK  100  A    between atoms: _235  and  _236
REMARK  101  A    between atoms: _235  and  _238
REMARK  102  A    between atoms: _238  and  _239
REMARK  103  A    between atoms: _239  and  _240
REMARK  104  A    between atoms: _245  and  _247
REMARK  105  A    between atoms: _247  and  _248
REMARK  106  A    between atoms: _247  and  _250
REMARK  107  A    between atoms: _250  and  _251
REMARK  108  A    between atoms: _251  and  _252
REMARK  109  A    between atoms: _252  and  _253
REMARK  110  A    between atoms: _253  and  _254
REMARK  111  A    between atoms: _259  and  _260
REMARK  112  A    between atoms: _265  and  _267
REMARK  113  A    between atoms: _267  and  _268
REMARK  114  A    between atoms: _270  and  _272
REMARK  115  A    between atoms: _272  and  _273
REMARK  116  A    between atoms: _272  and  _275
REMARK  117  A    between atoms: _278  and  _280
REMARK  118  A    between atoms: _280  and  _281
REMARK  119  A    between atoms: _280  and  _283
REMARK  120  A    between atoms: _283  and  _284
REMARK  121  A    between atoms: _289  and  _290
REMARK                            x       y       z     vdW  Elec       q    Type
REMARK                         _______ _______ _______ _____ _____    ______ ____
ROOT
ATOM      1  CB  HIS A   1      37.898  24.694  46.978  0.00  0.00    +0.072 C 
ENDROOT
BRANCH   1   2
ATOM      2  CG  HIS A   1      39.073  23.728  47.200  0.00  0.00    +0.082 A 
ATOM      3  ND1 HIS A   1      38.986  22.479  47.600  0.00  0.00    -0.227 NA
ATOM      4  CE1 HIS A   1      40.163  21.960  47.680  0.00  0.00    +0.199 A 
ATOM      5  NE2 HIS A   1      41.041  22.851  47.341  0.00  0.00    -0.221 NA
ATOM      6  CD2 HIS A   1      40.438  23.973  47.029  0.00  0.00    +0.115 A 
ENDBRANCH   1   2
BRANCH   1   7
ATOM      7  CA  HIS A   1      37.276  24.813  45.522  0.00  0.00    +0.139 C 
BRANCH   7   8
ATOM      8  N   HIS A   1      36.375  23.674  45.226  0.00  0.00    -0.239 NA
ATOM      9  H   HIS A   1      36.407  22.803  45.794  0.00  0.00    +0.142 HD
ENDBRANCH   7   8
BRANCH   7  10
ATOM     10  C   HIS A   1      38.382  24.893  44.448  0.00  0.00    +0.224 C 
ATOM     11  O   HIS A   1      39.193  25.790  44.520  0.00  0.00    -0.287 OA
ENDBRANCH   7  10
ENDBRANCH   1   7
TORSDOF 4
REMARK  Name = ../refined-set-2016/1c5p/1c5p_pocket.pdb
REMARK  121 active torsions:
REMARK  status: ('A' for Active; 'I' for Inactive)
REMARK    1  A    between atoms: _1  and  _5
REMARK    2  A    between atoms: _5  and  _6
REMARK    3  A    between atoms: _5  and  _8
REMARK    4  A    between atoms: _8  and  _9
REMARK    5  A    between atoms: _12  and  _14
REMARK    6  A    between atoms: _14  and  _15
REMARK    7  A    between atoms: _14  and  _17
REMARK    8  A    between atoms: _20  and  _22
REMARK    9  A    between atoms: _22  and  _23
REMARK   10  A    between atoms: _22  and  _25
REMARK   11  A    between atoms: _25  and  _26
REMARK   12  A    between atoms: _31  and  _33
REMARK   13  A    between atoms: _33  and  _34
REMARK   14  A    between atoms: _33  and  _36
REMARK   15  A    between atoms: _36  and  _37
REMARK   16  A    between atoms: _40  and  _42
REMARK   17  A    between atoms: _42  and  _43
REMARK   18  A    between atoms: _42  and  _45
REMARK   19  A    between atoms: _45  and  _46
REMARK   20  A    between atoms: _49  and  _51
REMARK   21  A    between atoms: _51  and  _52
REMARK   22  A    between atoms: _51  and  _54
REMARK   23  A    between atoms: _54  and  _55
REMARK   24  A    between atoms: _60  and  _62
REMARK   25  A    between atoms: _62  and  _63
REMARK   26  A    between atoms: _62  and  _65
REMARK   27  A    between atoms: _65  and  _66
REMARK   28  A    between atoms: _71  and  _72
REMARK   29  A    between atoms: _74  and  _76
REMARK   30  A    between atoms: _76  and  _77
REMARK   31  A    between atoms: _80  and  _82
REMARK   32  A    between atoms: _82  and  _83
REMARK   33  A    between atoms: _82  and  _85
REMARK   34  A    between atoms: _85  and  _86
REMARK   35  A    between atoms: _86  and  _87
REMARK   36  A    between atoms: _87  and  _88
REMARK   37  A    between atoms: _88  and  _89
REMARK   38  A    between atoms: _93  and  _95
REMARK   39  A    between atoms: _95  and  _96
REMARK   40  A    between atoms: _95  and  _98
REMARK   41  A    between atoms: _98  and  _99
REMARK   42  A    between atoms: _102  and  _104
REMARK   43  A    between atoms: _104  and  _105
REMARK   44  A    between atoms: _104  and  _107
REMARK   45  A    between atoms: _107  and  _108
REMARK   46  A    between atoms: _110  and  _112
REMARK   47  A    between atoms: _112  and  _113
REMARK   48  A    between atoms: _112  and  _115
REMARK   49  A    between atoms: _115  and  _116
REMARK   50  A    between atoms: _116  and  _226
REMARK   51  A    between atoms: _117  and  _119
REMARK   52  A    between atoms: _119  and  _120
REMARK   53  A    between atoms: _119  and  _122
REMARK   54  A    between atoms: _122  and  _123
REMARK   55  A    between atoms: _123  and  _124
REMARK   56  A    between atoms: _129  and  _131
REMARK   57  A    between atoms: _131  and  _132
REMARK   58  A    between atoms: _134  and  _136
REMARK   59  A    between atoms: _136  and  _137
REMARK   60  A    between atoms: _136  and  _139
REMARK   61  A    between atoms: _139  and  _140
REMARK   62  A    between atoms: _143  and  _145
REMARK   63  A    between atoms: _145  and  _146
REMARK   64  A    between atoms: _145  and  _148
REMARK   65  A    between atoms: _148  and  _149
REMARK   66  A    between atoms: _151  and  _153
REMARK   67  A    between atoms: _153  and  _154
REMARK   68  A    between atoms: _156  and  _158
REMARK   69  A    between atoms: _158  and  _159
REMARK   70  A    between atoms: _161  and  _163
REMARK   71  A    between atoms: _163  and  _164
REMARK   72  A    between atoms: _163  and  _166
REMARK   73  A    between atoms: _166  and  _167
REMARK   74  A    between atoms: _170  and  _172
REMARK   75  A    between atoms: _172  and  _173
REMARK   76  A    between atoms: _172  and  _175
REMARK   77  A    between atoms: _178  and  _180
REMARK   78  A    between atoms: _180  and  _181
REMARK   79  A    between atoms: _180  and  _183
REMARK   80  A    between atoms: _183  and  _184
REMARK   81  A    between atoms: _186  and  _188
REMARK   82  A    between atoms: _188  and  _189
REMARK   83  A    between atoms: _188  and  _191
REMARK   84  A    between atoms: _191  and  _192
REMARK   85  A    between atoms: _202  and  _204
REMARK   86  A    between atoms: _204  and  _205
REMARK   87  A    between atoms: _207  and  _209
REMARK   88  A    between atoms: _209  and  _210
REMARK   89  A    between atoms: _209  and  _212
REMARK   90  A    between atoms: _212  and  _213
REMARK   91  A    between atoms: _215  and  _217
REMARK   92  A    between atoms: _217  and  _218
REMARK   93  A    between atoms: _220  and  _222
REMARK   94  A    between atoms: _222  and  _223
REMARK   95  A    between atoms: _222  and  _225
REMARK   96  A    between atoms: _225  and  _226
REMARK   97  A    between atoms: _227  and  _229
REMARK   98  A    between atoms: _229  and  _230
REMARK   99  A    between atoms: _233  and  _235
REMARK  100  A    between atoms: _235  and  _236
REMARK  101  A    between atoms: _235  and  _238
REMARK  102  A    between atoms: _238  and  _239
REMARK  103  A    between atoms: _239  and  _240
REMARK  104  A    between atoms: _245  and  _247
REMARK  105  A    between atoms: _247  and  _248
REMARK  106  A    between atoms: _247  and  _250
REMARK  107  A    between atoms: _250  and  _251
REMARK  108  A    between atoms: _251  and  _252
REMARK  109  A    between atoms: _252  and  _253
REMARK  110  A    between atoms: _253  and  _254
REMARK  111  A    between atoms: _259  and  _260
REMARK  112  A    between atoms: _265  and  _267
REMARK  113  A    between atoms: _267  and  _268
REMARK  114  A    between atoms: _270  and  _272
REMARK  115  A    between atoms: _272  and  _273
REMARK  116  A    between atoms: _272  and  _275
REMARK  117  A    between atoms: _278  and  _280
REMARK  118  A    between atoms: _280  and  _281
REMARK  119  A    between atoms: _280  and  _283
REMARK  120  A    between atoms: _283  and  _284
REMARK  121  A    between atoms: _289  and  _290
REMARK                            x       y       z     vdW  Elec       q    Type
REMARK                         _______ _______ _______ _____ _____    ______ ____
ROOT
ATOM      1  CA  LEU A   1      34.026  23.523  52.302  0.00  0.00    +0.133 C 
ENDROOT
BRANCH   1   2
ATOM      2  N   LEU A   1      33.571  24.490  53.329  0.00  0.00    -0.239 NA
ATOM      3  H   LEU A   1      33.160  25.383  52.990  0.00  0.00    +0.142 HD
ENDBRANCH   1   2
BRANCH   1   4
ATOM      4  C   LEU A   1      33.095  22.339  52.318  0.00  0.00    +0.224 C 
ATOM      5  O   LEU A   1      33.472  21.258  51.892  0.00  0.00    -0.287 OA
ENDBRANCH   1   4
BRANCH   1   6
ATOM      6  CB  LEU A   1      35.511  23.009  52.511  0.00  0.00    +0.025 C 
BRANCH   6   7
ATOM      7  CG  LEU A   1      36.594  24.077  52.169  0.00  0.00    +0.002 C 
ATOM      8  CD2 LEU A   1      37.815  23.406  51.438  0.00  0.00    +0.000 C 
ATOM      9  CD1 LEU A   1      36.086  25.154  51.210  0.00  0.00    +0.000 C 
ENDBRANCH   6   7
ENDBRANCH   1   6
TORSDOF 4
REMARK  Name = ../refined-set-2016/1c5p/1c5p_pocket.pdb
REMARK  121 active torsions:
REMARK  status: ('A' for Active; 'I' for Inactive)
REMARK    1  A    between atoms: _1  and  _5
REMARK    2  A    between atoms: _5  and  _6
REMARK    3  A    between atoms: _5  and  _8
REMARK    4  A    between atoms: _8  and  _9
REMARK    5  A    between atoms: _12  and  _14
REMARK    6  A    between atoms: _14  and  _15
REMARK    7  A    between atoms: _14  and  _17
REMARK    8  A    between atoms: _20  and  _22
REMARK    9  A    between atoms: _22  and  _23
REMARK   10  A    between atoms: _22  and  _25
REMARK   11  A    between atoms: _25  and  _26
REMARK   12  A    between atoms: _31  and  _33
REMARK   13  A    between atoms: _33  and  _34
REMARK   14  A    between atoms: _33  and  _36
REMARK   15  A    between atoms: _36  and  _37
REMARK   16  A    between atoms: _40  and  _42
REMARK   17  A    between atoms: _42  and  _43
REMARK   18  A    between atoms: _42  and  _45
REMARK   19  A    between atoms: _45  and  _46
REMARK   20  A    between atoms: _49  and  _51
REMARK   21  A    between atoms: _51  and  _52
REMARK   22  A    between atoms: _51  and  _54
REMARK   23  A    between atoms: _54  and  _55
REMARK   24  A    between atoms: _60  and  _62
REMARK   25  A    between atoms: _62  and  _63
REMARK   26  A    between atoms: _62  and  _65
REMARK   27  A    between atoms: _65  and  _66
REMARK   28  A    between atoms: _71  and  _72
REMARK   29  A    between atoms: _74  and  _76
REMARK   30  A    between atoms: _76  and  _77
REMARK   31  A    between atoms: _80  and  _82
REMARK   32  A    between atoms: _82  and  _83
REMARK   33  A    between atoms: _82  and  _85
REMARK   34  A    between atoms: _85  and  _86
REMARK   35  A    between atoms: _86  and  _87
REMARK   36  A    between atoms: _87  and  _88
REMARK   37  A    between atoms: _88  and  _89
REMARK   38  A    between atoms: _93  and  _95
REMARK   39  A    between atoms: _95  and  _96
REMARK   40  A    between atoms: _95  and  _98
REMARK   41  A    between atoms: _98  and  _99
REMARK   42  A    between atoms: _102  and  _104
REMARK   43  A    between atoms: _104  and  _105
REMARK   44  A    between atoms: _104  and  _107
REMARK   45  A    between atoms: _107  and  _108
REMARK   46  A    between atoms: _110  and  _112
REMARK   47  A    between atoms: _112  and  _113
REMARK   48  A    between atoms: _112  and  _115
REMARK   49  A    between atoms: _115  and  _116
REMARK   50  A    between atoms: _116  and  _226
REMARK   51  A    between atoms: _117  and  _119
REMARK   52  A    between atoms: _119  and  _120
REMARK   53  A    between atoms: _119  and  _122
REMARK   54  A    between atoms: _122  and  _123
REMARK   55  A    between atoms: _123  and  _124
REMARK   56  A    between atoms: _129  and  _131
REMARK   57  A    between atoms: _131  and  _132
REMARK   58  A    between atoms: _134  and  _136
REMARK   59  A    between atoms: _136  and  _137
REMARK   60  A    between atoms: _136  and  _139
REMARK   61  A    between atoms: _139  and  _140
REMARK   62  A    between atoms: _143  and  _145
REMARK   63  A    between atoms: _145  and  _146
REMARK   64  A    between atoms: _145  and  _148
REMARK   65  A    between atoms: _148  and  _149
REMARK   66  A    between atoms: _151  and  _153
REMARK   67  A    between atoms: _153  and  _154
REMARK   68  A    between atoms: _156  and  _158
REMARK   69  A    between atoms: _158  and  _159
REMARK   70  A    between atoms: _161  and  _163
REMARK   71  A    between atoms: _163  and  _164
REMARK   72  A    between atoms: _163  and  _166
REMARK   73  A    between atoms: _166  and  _167
REMARK   74  A    between atoms: _170  and  _172
REMARK   75  A    between atoms: _172  and  _173
REMARK   76  A    between atoms: _172  and  _175
REMARK   77  A    between atoms: _178  and  _180
REMARK   78  A    between atoms: _180  and  _181
REMARK   79  A    between atoms: _180  and  _183
REMARK   80  A    between atoms: _183  and  _184
REMARK   81  A    between atoms: _186  and  _188
REMARK   82  A    between atoms: _188  and  _189
REMARK   83  A    between atoms: _188  and  _191
REMARK   84  A    between atoms: _191  and  _192
REMARK   85  A    between atoms: _202  and  _204
REMARK   86  A    between atoms: _204  and  _205
REMARK   87  A    between atoms: _207  and  _209
REMARK   88  A    between atoms: _209  and  _210
REMARK   89  A    between atoms: _209  and  _212
REMARK   90  A    between atoms: _212  and  _213
REMARK   91  A    between atoms: _215  and  _217
REMARK   92  A    between atoms: _217  and  _218
REMARK   93  A    between atoms: _220  and  _222
REMARK   94  A    between atoms: _222  and  _223
REMARK   95  A    between atoms: _222  and  _225
REMARK   96  A    between atoms: _225  and  _226
REMARK   97  A    between atoms: _227  and  _229
REMARK   98  A    between atoms: _229  and  _230
REMARK   99  A    between atoms: _233  and  _235
REMARK  100  A    between atoms: _235  and  _236
REMARK  101  A    between atoms: _235  and  _238
REMARK  102  A    between atoms: _238  and  _239
REMARK  103  A    between atoms: _239  and  _240
REMARK  104  A    between atoms: _245  and  _247
REMARK  105  A    between atoms: _247  and  _248
REMARK  106  A    between atoms: _247  and  _250
REMARK  107  A    between atoms: _250  and  _251
REMARK  108  A    between atoms: _251  and  _252
REMARK  109  A    between atoms: _252  and  _253
REMARK  110  A    between atoms: _253  and  _254
REMARK  111  A    between atoms: _259  and  _260
REMARK  112  A    between atoms: _265  and  _267
REMARK  113  A    between atoms: _267  and  _268
REMARK  114  A    between atoms: _270  and  _272
REMARK  115  A    between atoms: _272  and  _273
REMARK  116  A    between atoms: _272  and  _275
REMARK  117  A    between atoms: _278  and  _280
REMARK  118  A    between atoms: _280  and  _281
REMARK  119  A    between atoms: _280  and  _283
REMARK  120  A    between atoms: _283  and  _284
REMARK  121  A    between atoms: _289  and  _290
REMARK                            x       y       z     vdW  Elec       q    Type
REMARK                         _______ _______ _______ _____ _____    ______ ____
ROOT
ATOM      1  CA  ILE A   1      45.762   9.053  47.581  0.00  0.00    +0.133 C 
ENDROOT
BRANCH   1   2
ATOM      2  N   ILE A   1      45.929   7.591  47.824  0.00  0.00    -0.239 NA
ATOM      3  H   ILE A   1      46.780   7.271  48.328  0.00  0.00    +0.142 HD
ENDBRANCH   1   2
BRANCH   1   4
ATOM      4  CB  ILE A   1      45.825   9.765  48.955  0.00  0.00    +0.023 C 
ATOM      5  CG2 ILE A   1      45.461  11.254  48.762  0.00  0.00    +0.002 C 
BRANCH   4   6
ATOM      6  CG1 ILE A   1      44.789   9.078  49.925  0.00  0.00    +0.002 C 
ATOM      7  CD1 ILE A   1      44.915   9.603  51.351  0.00  0.00    +0.000 C 
ENDBRANCH   4   6
ENDBRANCH   1   4
BRANCH   1   8
ATOM      8  C   ILE A   1      46.945   9.407  46.675  0.00  0.00    +0.224 C 
ATOM      9  O   ILE A   1      48.056   8.964  46.922  0.00  0.00    -0.287 OA
ENDBRANCH   1   8
TORSDOF 4
REMARK  Name = ../refined-set-2016/1c5p/1c5p_pocket.pdb
REMARK  121 active torsions:
REMARK  status: ('A' for Active; 'I' for Inactive)
REMARK    1  A    between atoms: _1  and  _5
REMARK    2  A    between atoms: _5  and  _6
REMARK    3  A    between atoms: _5  and  _8
REMARK    4  A    between atoms: _8  and  _9
REMARK    5  A    between atoms: _12  and  _14
REMARK    6  A    between atoms: _14  and  _15
REMARK    7  A    between atoms: _14  and  _17
REMARK    8  A    between atoms: _20  and  _22
REMARK    9  A    between atoms: _22  and  _23
REMARK   10  A    between atoms: _22  and  _25
REMARK   11  A    between atoms: _25  and  _26
REMARK   12  A    between atoms: _31  and  _33
REMARK   13  A    between atoms: _33  and  _34
REMARK   14  A    between atoms: _33  and  _36
REMARK   15  A    between atoms: _36  and  _37
REMARK   16  A    between atoms: _40  and  _42
REMARK   17  A    between atoms: _42  and  _43
REMARK   18  A    between atoms: _42  and  _45
REMARK   19  A    between atoms: _45  and  _46
REMARK   20  A    between atoms: _49  and  _51
REMARK   21  A    between atoms: _51  and  _52
REMARK   22  A    between atoms: _51  and  _54
REMARK   23  A    between atoms: _54  and  _55
REMARK   24  A    between atoms: _60  and  _62
REMARK   25  A    between atoms: _62  and  _63
REMARK   26  A    between atoms: _62  and  _65
REMARK   27  A    between atoms: _65  and  _66
REMARK   28  A    between atoms: _71  and  _72
REMARK   29  A    between atoms: _74  and  _76
REMARK   30  A    between atoms: _76  and  _77
REMARK   31  A    between atoms: _80  and  _82
REMARK   32  A    between atoms: _82  and  _83
REMARK   33  A    between atoms: _82  and  _85
REMARK   34  A    between atoms: _85  and  _86
REMARK   35  A    between atoms: _86  and  _87
REMARK   36  A    between atoms: _87  and  _88
REMARK   37  A    between atoms: _88  and  _89
REMARK   38  A    between atoms: _93  and  _95
REMARK   39  A    between atoms: _95  and  _96
REMARK   40  A    between atoms: _95  and  _98
REMARK   41  A    between atoms: _98  and  _99
REMARK   42  A    between atoms: _102  and  _104
REMARK   43  A    between atoms: _104  and  _105
REMARK   44  A    between atoms: _104  and  _107
REMARK   45  A    between atoms: _107  and  _108
REMARK   46  A    between atoms: _110  and  _112
REMARK   47  A    between atoms: _112  and  _113
REMARK   48  A    between atoms: _112  and  _115
REMARK   49  A    between atoms: _115  and  _116
REMARK   50  A    between atoms: _116  and  _226
REMARK   51  A    between atoms: _117  and  _119
REMARK   52  A    between atoms: _119  and  _120
REMARK   53  A    between atoms: _119  and  _122
REMARK   54  A    between atoms: _122  and  _123
REMARK   55  A    between atoms: _123  and  _124
REMARK   56  A    between atoms: _129  and  _131
REMARK   57  A    between atoms: _131  and  _132
REMARK   58  A    between atoms: _134  and  _136
REMARK   59  A    between atoms: _136  and  _137
REMARK   60  A    between atoms: _136  and  _139
REMARK   61  A    between atoms: _139  and  _140
REMARK   62  A    between atoms: _143  and  _145
REMARK   63  A    between atoms: _145  and  _146
REMARK   64  A    between atoms: _145  and  _148
REMARK   65  A    between atoms: _148  and  _149
REMARK   66  A    between atoms: _151  and  _153
REMARK   67  A    between atoms: _153  and  _154
REMARK   68  A    between atoms: _156  and  _158
REMARK   69  A    between atoms: _158  and  _159
REMARK   70  A    between atoms: _161  and  _163
REMARK   71  A    between atoms: _163  and  _164
REMARK   72  A    between atoms: _163  and  _166
REMARK   73  A    between atoms: _166  and  _167
REMARK   74  A    between atoms: _170  and  _172
REMARK   75  A    between atoms: _172  and  _173
REMARK   76  A    between atoms: _172  and  _175
REMARK   77  A    between atoms: _178  and  _180
REMARK   78  A    between atoms: _180  and  _181
REMARK   79  A    between atoms: _180  and  _183
REMARK   80  A    between atoms: _183  and  _184
REMARK   81  A    between atoms: _186  and  _188
REMARK   82  A    between atoms: _188  and  _189
REMARK   83  A    between atoms: _188  and  _191
REMARK   84  A    between atoms: _191  and  _192
REMARK   85  A    between atoms: _202  and  _204
REMARK   86  A    between atoms: _204  and  _205
REMARK   87  A    between atoms: _207  and  _209
REMARK   88  A    between atoms: _209  and  _210
REMARK   89  A    between atoms: _209  and  _212
REMARK   90  A    between atoms: _212  and  _213
REMARK   91  A    between atoms: _215  and  _217
REMARK   92  A    between atoms: _217  and  _218
REMARK   93  A    between atoms: _220  and  _222
REMARK   94  A    between atoms: _222  and  _223
REMARK   95  A    between atoms: _222  and  _225
REMARK   96  A    between atoms: _225  and  _226
REMARK   97  A    between atoms: _227  and  _229
REMARK   98  A    between atoms: _229  and  _230
REMARK   99  A    between atoms: _233  and  _235
REMARK  100  A    between atoms: _235  and  _236
REMARK  101  A    between atoms: _235  and  _238
REMARK  102  A    between atoms: _238  and  _239
REMARK  103  A    between atoms: _239  and  _240
REMARK  104  A    between atoms: _245  and  _247
REMARK  105  A    between atoms: _247  and  _248
REMARK  106  A    between atoms: _247  and  _250
REMARK  107  A    between atoms: _250  and  _251
REMARK  108  A    between atoms: _251  and  _252
REMARK  109  A    between atoms: _252  and  _253
REMARK  110  A    between atoms: _253  and  _254
REMARK  111  A    between atoms: _259  and  _260
REMARK  112  A    between atoms: _265  and  _267
REMARK  113  A    between atoms: _267  and  _268
REMARK  114  A    between atoms: _270  and  _272
REMARK  115  A    between atoms: _272  and  _273
REMARK  116  A    between atoms: _272  and  _275
REMARK  117  A    between atoms: _278  and  _280
REMARK  118  A    between atoms: _280  and  _281
REMARK  119  A    between atoms: _280  and  _283
REMARK  120  A    between atoms: _283  and  _284
REMARK  121  A    between atoms: _289  and  _290
REMARK                            x       y       z     vdW  Elec       q    Type
REMARK                         _______ _______ _______ _____ _____    ______ ____
ROOT
ATOM      1  CB  ASN A   1      53.303  21.004  48.948  0.00  0.00    +0.110 C 
ENDROOT
BRANCH   1   2
ATOM      2  CG  ASN A   1      54.539  21.584  49.656  0.00  0.00    +0.221 C 
ATOM      3  ND2 ASN A   1      54.333  22.500  50.551  0.00  0.00    -0.329 N 
ATOM      4 HD21 ASN A   1      55.138  22.927  51.053  0.00  0.00    +0.145 HD
ATOM      5 HD22 ASN A   1      53.363  22.807  50.767  0.00  0.00    +0.145 HD
ATOM      6  OD1 ASN A   1      55.685  21.231  49.411  0.00  0.00    -0.275 OA
ENDBRANCH   1   2
BRANCH   1   7
ATOM      7  CA  ASN A   1      53.675  19.854  47.978  0.00  0.00    +0.142 C 
BRANCH   7   8
ATOM      8  N   ASN A   1      52.497  19.645  47.102  0.00  0.00    -0.239 NA
ATOM      9  H   ASN A   1      51.697  20.306  47.160  0.00  0.00    +0.142 HD
ENDBRANCH   7   8
BRANCH   7  10
ATOM     10  C   ASN A   1      54.095  18.585  48.727  0.00  0.00    +0.225 C 
ATOM     11  O   ASN A   1      53.218  17.840  49.171  0.00  0.00    -0.287 OA
ENDBRANCH   7  10
ENDBRANCH   1   7
TORSDOF 4
REMARK  Name = ../refined-set-2016/1c5p/1c5p_pocket.pdb
REMARK  121 active torsions:
REMARK  status: ('A' for Active; 'I' for Inactive)
REMARK    1  A    between atoms: _1  and  _5
REMARK    2  A    between atoms: _5  and  _6
REMARK    3  A    between atoms: _5  and  _8
REMARK    4  A    between atoms: _8  and  _9
REMARK    5  A    between atoms: _12  and  _14
REMARK    6  A    between atoms: _14  and  _15
REMARK    7  A    between atoms: _14  and  _17
REMARK    8  A    between atoms: _20  and  _22
REMARK    9  A    between atoms: _22  and  _23
REMARK   10  A    between atoms: _22  and  _25
REMARK   11  A    between atoms: _25  and  _26
REMARK   12  A    between atoms: _31  and  _33
REMARK   13  A    between atoms: _33  and  _34
REMARK   14  A    between atoms: _33  and  _36
REMARK   15  A    between atoms: _36  and  _37
REMARK   16  A    between atoms: _40  and  _42
REMARK   17  A    between atoms: _42  and  _43
REMARK   18  A    between atoms: _42  and  _45
REMARK   19  A    between atoms: _45  and  _46
REMARK   20  A    between atoms: _49  and  _51
REMARK   21  A    between atoms: _51  and  _52
REMARK   22  A    between atoms: _51  and  _54
REMARK   23  A    between atoms: _54  and  _55
REMARK   24  A    between atoms: _60  and  _62
REMARK   25  A    between atoms: _62  and  _63
REMARK   26  A    between atoms: _62  and  _65
REMARK   27  A    between atoms: _65  and  _66
REMARK   28  A    between atoms: _71  and  _72
REMARK   29  A    between atoms: _74  and  _76
REMARK   30  A    between atoms: _76  and  _77
REMARK   31  A    between atoms: _80  and  _82
REMARK   32  A    between atoms: _82  and  _83
REMARK   33  A    between atoms: _82  and  _85
REMARK   34  A    between atoms: _85  and  _86
REMARK   35  A    between atoms: _86  and  _87
REMARK   36  A    between atoms: _87  and  _88
REMARK   37  A    between atoms: _88  and  _89
REMARK   38  A    between atoms: _93  and  _95
REMARK   39  A    between atoms: _95  and  _96
REMARK   40  A    between atoms: _95  and  _98
REMARK   41  A    between atoms: _98  and  _99
REMARK   42  A    between atoms: _102  and  _104
REMARK   43  A    between atoms: _104  and  _105
REMARK   44  A    between atoms: _104  and  _107
REMARK   45  A    between atoms: _107  and  _108
REMARK   46  A    between atoms: _110  and  _112
REMARK   47  A    between atoms: _112  and  _113
REMARK   48  A    between atoms: _112  and  _115
REMARK   49  A    between atoms: _115  and  _116
REMARK   50  A    between atoms: _116  and  _226
REMARK   51  A    between atoms: _117  and  _119
REMARK   52  A    between atoms: _119  and  _120
REMARK   53  A    between atoms: _119  and  _122
REMARK   54  A    between atoms: _122  and  _123
REMARK   55  A    between atoms: _123  and  _124
REMARK   56  A    between atoms: _129  and  _131
REMARK   57  A    between atoms: _131  and  _132
REMARK   58  A    between atoms: _134  and  _136
REMARK   59  A    between atoms: _136  and  _137
REMARK   60  A    between atoms: _136  and  _139
REMARK   61  A    between atoms: _139  and  _140
REMARK   62  A    between atoms: _143  and  _145
REMARK   63  A    between atoms: _145  and  _146
REMARK   64  A    between atoms: _145  and  _148
REMARK   65  A    between atoms: _148  and  _149
REMARK   66  A    between atoms: _151  and  _153
REMARK   67  A    between atoms: _153  and  _154
REMARK   68  A    between atoms: _156  and  _158
REMARK   69  A    between atoms: _158  and  _159
REMARK   70  A    between atoms: _161  and  _163
REMARK   71  A    between atoms: _163  and  _164
REMARK   72  A    between atoms: _163  and  _166
REMARK   73  A    between atoms: _166  and  _167
REMARK   74  A    between atoms: _170  and  _172
REMARK   75  A    between atoms: _172  and  _173
REMARK   76  A    between atoms: _172  and  _175
REMARK   77  A    between atoms: _178  and  _180
REMARK   78  A    between atoms: _180  and  _181
REMARK   79  A    between atoms: _180  and  _183
REMARK   80  A    between atoms: _183  and  _184
REMARK   81  A    between atoms: _186  and  _188
REMARK   82  A    between atoms: _188  and  _189
REMARK   83  A    between atoms: _188  and  _191
REMARK   84  A    between atoms: _191  and  _192
REMARK   85  A    between atoms: _202  and  _204
REMARK   86  A    between atoms: _204  and  _205
REMARK   87  A    between atoms: _207  and  _209
REMARK   88  A    between atoms: _209  and  _210
REMARK   89  A    between atoms: _209  and  _212
REMARK   90  A    between atoms: _212  and  _213
REMARK   91  A    between atoms: _215  and  _217
REMARK   92  A    between atoms: _217  and  _218
REMARK   93  A    between atoms: _220  and  _222
REMARK   94  A    between atoms: _222  and  _223
REMARK   95  A    between atoms: _222  and  _225
REMARK   96  A    between atoms: _225  and  _226
REMARK   97  A    between atoms: _227  and  _229
REMARK   98  A    between atoms: _229  and  _230
REMARK   99  A    between atoms: _233  and  _235
REMARK  100  A    between atoms: _235  and  _236
REMARK  101  A    between atoms: _235  and  _238
REMARK  102  A    between atoms: _238  and  _239
REMARK  103  A    between atoms: _239  and  _240
REMARK  104  A    between atoms: _245  and  _247
REMARK  105  A    between atoms: _247  and  _248
REMARK  106  A    between atoms: _247  and  _250
REMARK  107  A    between atoms: _250  and  _251
REMARK  108  A    between atoms: _251  and  _252
REMARK  109  A    between atoms: _252  and  _253
REMARK  110  A    between atoms: _253  and  _254
REMARK  111  A    between atoms: _259  and  _260
REMARK  112  A    between atoms: _265  and  _267
REMARK  113  A    between atoms: _267  and  _268
REMARK  114  A    between atoms: _270  and  _272
REMARK  115  A    between atoms: _272  and  _273
REMARK  116  A    between atoms: _272  and  _275
REMARK  117  A    between atoms: _278  and  _280
REMARK  118  A    between atoms: _280  and  _281
REMARK  119  A    between atoms: _280  and  _283
REMARK  120  A    between atoms: _283  and  _284
REMARK  121  A    between atoms: _289  and  _290
REMARK                            x       y       z     vdW  Elec       q    Type
REMARK                         _______ _______ _______ _____ _____    ______ ____
ROOT
ATOM      1  CG  TYR A   1      39.587  19.297  61.725  0.00  0.00    -0.020 A 
ATOM      2  CD2 TYR A   1      40.453  20.341  61.546  0.00  0.00    -0.001 A 
ATOM      3  CE2 TYR A   1      41.655  20.121  60.918  0.00  0.00    +0.036 A 
ATOM      4  CZ  TYR A   1      42.009  18.859  60.462  0.00  0.00    +0.134 A 
ATOM      5  CE1 TYR A   1      41.158  17.821  60.640  0.00  0.00    +0.036 A 
ATOM      6  CD1 TYR A   1      39.956  18.039  61.266  0.00  0.00    -0.001 A 
ENDROOT
BRANCH   4   7
ATOM      7  OH  TYR A   1      43.204  18.656  59.826  0.00  0.00    -0.506 OA
ATOM      8  HH  TYR A   1      43.284  17.702  59.574  0.00  0.00    +0.292 HD
ENDBRANCH   4   7
BRANCH   1   9
ATOM      9  CB  TYR A   1      38.229  19.530  62.393  0.00  0.00    +0.051 C 
BRANCH   9  10
ATOM     10  CA  TYR A   1      38.318  19.682  63.911  0.00  0.00    +0.137 C 
BRANCH  10  11
ATOM     11  N   TYR A   1      38.955  18.466  64.474  0.00  0.00    -0.239 NA
ATOM     12  H   TYR A   1      38.451  17.557  64.434  0.00  0.00    +0.142 HD
ENDBRANCH  10  11
BRANCH  10  13
ATOM     13  C   TYR A   1      36.881  19.943  64.492  0.00  0.00    +0.224 C 
ATOM     14  O   TYR A   1      35.893  19.759  63.800  0.00  0.00    -0.287 OA
ENDBRANCH  10  13
ENDBRANCH   9  10
ENDBRANCH   1   9
TORSDOF 5
REMARK  Name = ../refined-set-2016/1c5p/1c5p_pocket.pdb
REMARK  121 active torsions:
REMARK  status: ('A' for Active; 'I' for Inactive)
REMARK    1  A    between atoms: _1  and  _5
REMARK    2  A    between atoms: _5  and  _6
REMARK    3  A    between atoms: _5  and  _8
REMARK    4  A    between atoms: _8  and  _9
REMARK    5  A    between atoms: _12  and  _14
REMARK    6  A    between atoms: _14  and  _15
REMARK    7  A    between atoms: _14  and  _17
REMARK    8  A    between atoms: _20  and  _22
REMARK    9  A    between atoms: _22  and  _23
REMARK   10  A    between atoms: _22  and  _25
REMARK   11  A    between atoms: _25  and  _26
REMARK   12  A    between atoms: _31  and  _33
REMARK   13  A    between atoms: _33  and  _34
REMARK   14  A    between atoms: _33  and  _36
REMARK   15  A    between atoms: _36  and  _37
REMARK   16  A    between atoms: _40  and  _42
REMARK   17  A    between atoms: _42  and  _43
REMARK   18  A    between atoms: _42  and  _45
REMARK   19  A    between atoms: _45  and  _46
REMARK   20  A    between atoms: _49  and  _51
REMARK   21  A    between atoms: _51  and  _52
REMARK   22  A    between atoms: _51  and  _54
REMARK   23  A    between atoms: _54  and  _55
REMARK   24  A    between atoms: _60  and  _62
REMARK   25  A    between atoms: _62  and  _63
REMARK   26  A    between atoms: _62  and  _65
REMARK   27  A    between atoms: _65  and  _66
REMARK   28  A    between atoms: _71  and  _72
REMARK   29  A    between atoms: _74  and  _76
REMARK   30  A    between atoms: _76  and  _77
REMARK   31  A    between atoms: _80  and  _82
REMARK   32  A    between atoms: _82  and  _83
REMARK   33  A    between atoms: _82  and  _85
REMARK   34  A    between atoms: _85  and  _86
REMARK   35  A    between atoms: _86  and  _87
REMARK   36  A    between atoms: _87  and  _88
REMARK   37  A    between atoms: _88  and  _89
REMARK   38  A    between atoms: _93  and  _95
REMARK   39  A    between atoms: _95  and  _96
REMARK   40  A    between atoms: _95  and  _98
REMARK   41  A    between atoms: _98  and  _99
REMARK   42  A    between atoms: _102  and  _104
REMARK   43  A    between atoms: _104  and  _105
REMARK   44  A    between atoms: _104  and  _107
REMARK   45  A    between atoms: _107  and  _108
REMARK   46  A    between atoms: _110  and  _112
REMARK   47  A    between atoms: _112  and  _113
REMARK   48  A    between atoms: _112  and  _115
REMARK   49  A    between atoms: _115  and  _116
REMARK   50  A    between atoms: _116  and  _226
REMARK   51  A    between atoms: _117  and  _119
REMARK   52  A    between atoms: _119  and  _120
REMARK   53  A    between atoms: _119  and  _122
REMARK   54  A    between atoms: _122  and  _123
REMARK   55  A    between atoms: _123  and  _124
REMARK   56  A    between atoms: _129  and  _131
REMARK   57  A    between atoms: _131  and  _132
REMARK   58  A    between atoms: _134  and  _136
REMARK   59  A    between atoms: _136  and  _137
REMARK   60  A    between atoms: _136  and  _139
REMARK   61  A    between atoms: _139  and  _140
REMARK   62  A    between atoms: _143  and  _145
REMARK   63  A    between atoms: _145  and  _146
REMARK   64  A    between atoms: _145  and  _148
REMARK   65  A    between atoms: _148  and  _149
REMARK   66  A    between atoms: _151  and  _153
REMARK   67  A    between atoms: _153  and  _154
REMARK   68  A    between atoms: _156  and  _158
REMARK   69  A    between atoms: _158  and  _159
REMARK   70  A    between atoms: _161  and  _163
REMARK   71  A    between atoms: _163  and  _164
REMARK   72  A    between atoms: _163  and  _166
REMARK   73  A    between atoms: _166  and  _167
REMARK   74  A    between atoms: _170  and  _172
REMARK   75  A    between atoms: _172  and  _173
REMARK   76  A    between atoms: _172  and  _175
REMARK   77  A    between atoms: _178  and  _180
REMARK   78  A    between atoms: _180  and  _181
REMARK   79  A    between atoms: _180  and  _183
REMARK   80  A    between atoms: _183  and  _184
REMARK   81  A    between atoms: _186  and  _188
REMARK   82  A    between atoms: _188  and  _189
REMARK   83  A    between atoms: _188  and  _191
REMARK   84  A    between atoms: _191  and  _192
REMARK   85  A    between atoms: _202  and  _204
REMARK   86  A    between atoms: _204  and  _205
REMARK   87  A    between atoms: _207  and  _209
REMARK   88  A    between atoms: _209  and  _210
REMARK   89  A    between atoms: _209  and  _212
REMARK   90  A    between atoms: _212  and  _213
REMARK   91  A    between atoms: _215  and  _217
REMARK   92  A    between atoms: _217  and  _218
REMARK   93  A    between atoms: _220  and  _222
REMARK   94  A    between atoms: _222  and  _223
REMARK   95  A    between atoms: _222  and  _225
REMARK   96  A    between atoms: _225  and  _226
REMARK   97  A    between atoms: _227  and  _229
REMARK   98  A    between atoms: _229  and  _230
REMARK   99  A    between atoms: _233  and  _235
REMARK  100  A    between atoms: _235  and  _236
REMARK  101  A    between atoms: _235  and  _238
REMARK  102  A    between atoms: _238  and  _239
REMARK  103  A    between atoms: _239  and  _240
REMARK  104  A    between atoms: _245  and  _247
REMARK  105  A    between atoms: _247  and  _248
REMARK  106  A    between atoms: _247  and  _250
REMARK  107  A    between atoms: _250  and  _251
REMARK  108  A    between atoms: _251  and  _252
REMARK  109  A    between atoms: _252  and  _253
REMARK  110  A    between atoms: _253  and  _254
REMARK  111  A    between atoms: _259  and  _260
REMARK  112  A    between atoms: _265  and  _267
REMARK  113  A    between atoms: _267  and  _268
REMARK  114  A    between atoms: _270  and  _272
REMARK  115  A    between atoms: _272  and  _273
REMARK  116  A    between atoms: _272  and  _275
REMARK  117  A    between atoms: _278  and  _280
REMARK  118  A    between atoms: _280  and  _281
REMARK  119  A    between atoms: _280  and  _283
REMARK  120  A    between atoms: _283  and  _284
REMARK  121  A    between atoms: _289  and  _290
REMARK                            x       y       z     vdW  Elec       q    Type
REMARK                         _______ _______ _______ _____ _____    ______ ____
ROOT
ATOM      1  CA  ALA A   1      42.125   9.815  56.353  0.00  0.00    +0.133 C 
ATOM      2  CB  ALA A   1      42.068   9.484  54.856  0.00  0.00    +0.027 C 
ENDROOT
BRANCH   1   3
ATOM      3  N   ALA A   1      41.282  10.969  56.720  0.00  0.00    -0.239 NA
ATOM      4  H   ALA A   1      41.636  11.937  56.578  0.00  0.00    +0.142 HD
ENDBRANCH   1   3
BRANCH   1   5
ATOM      5  C   ALA A   1      43.503  10.259  56.672  0.00  0.00    +0.224 C 
ATOM      6  O   ALA A   1      43.841  11.424  56.521  0.00  0.00    -0.287 OA
ENDBRANCH   1   5
TORSDOF 2
REMARK  Name = ../refined-set-2016/1c5p/1c5p_pocket.pdb
REMARK  121 active torsions:
REMARK  status: ('A' for Active; 'I' for Inactive)
REMARK    1  A    between atoms: _1  and  _5
REMARK    2  A    between atoms: _5  and  _6
REMARK    3  A    between atoms: _5  and  _8
REMARK    4  A    between atoms: _8  and  _9
REMARK    5  A    between atoms: _12  and  _14
REMARK    6  A    between atoms: _14  and  _15
REMARK    7  A    between atoms: _14  and  _17
REMARK    8  A    between atoms: _20  and  _22
REMARK    9  A    between atoms: _22  and  _23
REMARK   10  A    between atoms: _22  and  _25
REMARK   11  A    between atoms: _25  and  _26
REMARK   12  A    between atoms: _31  and  _33
REMARK   13  A    between atoms: _33  and  _34
REMARK   14  A    between atoms: _33  and  _36
REMARK   15  A    between atoms: _36  and  _37
REMARK   16  A    between atoms: _40  and  _42
REMARK   17  A    between atoms: _42  and  _43
REMARK   18  A    between atoms: _42  and  _45
REMARK   19  A    between atoms: _45  and  _46
REMARK   20  A    between atoms: _49  and  _51
REMARK   21  A    between atoms: _51  and  _52
REMARK   22  A    between atoms: _51  and  _54
REMARK   23  A    between atoms: _54  and  _55
REMARK   24  A    between atoms: _60  and  _62
REMARK   25  A    between atoms: _62  and  _63
REMARK   26  A    between atoms: _62  and  _65
REMARK   27  A    between atoms: _65  and  _66
REMARK   28  A    between atoms: _71  and  _72
REMARK   29  A    between atoms: _74  and  _76
REMARK   30  A    between atoms: _76  and  _77
REMARK   31  A    between atoms: _80  and  _82
REMARK   32  A    between atoms: _82  and  _83
REMARK   33  A    between atoms: _82  and  _85
REMARK   34  A    between atoms: _85  and  _86
REMARK   35  A    between atoms: _86  and  _87
REMARK   36  A    between atoms: _87  and  _88
REMARK   37  A    between atoms: _88  and  _89
REMARK   38  A    between atoms: _93  and  _95
REMARK   39  A    between atoms: _95  and  _96
REMARK   40  A    between atoms: _95  and  _98
REMARK   41  A    between atoms: _98  and  _99
REMARK   42  A    between atoms: _102  and  _104
REMARK   43  A    between atoms: _104  and  _105
REMARK   44  A    between atoms: _104  and  _107
REMARK   45  A    between atoms: _107  and  _108
REMARK   46  A    between atoms: _110  and  _112
REMARK   47  A    between atoms: _112  and  _113
REMARK   48  A    between atoms: _112  and  _115
REMARK   49  A    between atoms: _115  and  _116
REMARK   50  A    between atoms: _116  and  _226
REMARK   51  A    between atoms: _117  and  _119
REMARK   52  A    between atoms: _119  and  _120
REMARK   53  A    between atoms: _119  and  _122
REMARK   54  A    between atoms: _122  and  _123
REMARK   55  A    between atoms: _123  and  _124
REMARK   56  A    between atoms: _129  and  _131
REMARK   57  A    between atoms: _131  and  _132
REMARK   58  A    between atoms: _134  and  _136
REMARK   59  A    between atoms: _136  and  _137
REMARK   60  A    between atoms: _136  and  _139
REMARK   61  A    between atoms: _139  and  _140
REMARK   62  A    between atoms: _143  and  _145
REMARK   63  A    between atoms: _145  and  _146
REMARK   64  A    between atoms: _145  and  _148
REMARK   65  A    between atoms: _148  and  _149
REMARK   66  A    between atoms: _151  and  _153
REMARK   67  A    between atoms: _153  and  _154
REMARK   68  A    between atoms: _156  and  _158
REMARK   69  A    between atoms: _158  and  _159
REMARK   70  A    between atoms: _161  and  _163
REMARK   71  A    between atoms: _163  and  _164
REMARK   72  A    between atoms: _163  and  _166
REMARK   73  A    between atoms: _166  and  _167
REMARK   74  A    between atoms: _170  and  _172
REMARK   75  A    between atoms: _172  and  _173
REMARK   76  A    between atoms: _172  and  _175
REMARK   77  A    between atoms: _178  and  _180
REMARK   78  A    between atoms: _180  and  _181
REMARK   79  A    between atoms: _180  and  _183
REMARK   80  A    between atoms: _183  and  _184
REMARK   81  A    between atoms: _186  and  _188
REMARK   82  A    between atoms: _188  and  _189
REMARK   83  A    between atoms: _188  and  _191
REMARK   84  A    between atoms: _191  and  _192
REMARK   85  A    between atoms: _202  and  _204
REMARK   86  A    between atoms: _204  and  _205
REMARK   87  A    between atoms: _207  and  _209
REMARK   88  A    between atoms: _209  and  _210
REMARK   89  A    between atoms: _209  and  _212
REMARK   90  A    between atoms: _212  and  _213
REMARK   91  A    between atoms: _215  and  _217
REMARK   92  A    between atoms: _217  and  _218
REMARK   93  A    between atoms: _220  and  _222
REMARK   94  A    between atoms: _222  and  _223
REMARK   95  A    between atoms: _222  and  _225
REMARK   96  A    between atoms: _225  and  _226
REMARK   97  A    between atoms: _227  and  _229
REMARK   98  A    between atoms: _229  and  _230
REMARK   99  A    between atoms: _233  and  _235
REMARK  100  A    between atoms: _235  and  _236
REMARK  101  A    between atoms: _235  and  _238
REMARK  102  A    between atoms: _238  and  _239
REMARK  103  A    between atoms: _239  and  _240
REMARK  104  A    between atoms: _245  and  _247
REMARK  105  A    between atoms: _247  and  _248
REMARK  106  A    between atoms: _247  and  _250
REMARK  107  A    between atoms: _250  and  _251
REMARK  108  A    between atoms: _251  and  _252
REMARK  109  A    between atoms: _252  and  _253
REMARK  110  A    between atoms: _253  and  _254
REMARK  111  A    between atoms: _259  and  _260
REMARK  112  A    between atoms: _265  and  _267
REMARK  113  A    between atoms: _267  and  _268
REMARK  114  A    between atoms: _270  and  _272
REMARK  115  A    between atoms: _272  and  _273
REMARK  116  A    between atoms: _272  and  _275
REMARK  117  A    between atoms: _278  and  _280
REMARK  118  A    between atoms: _280  and  _281
REMARK  119  A    between atoms: _280  and  _283
REMARK  120  A    between atoms: _283  and  _284
REMARK  121  A    between atoms: _289  and  _290
REMARK                            x       y       z     vdW  Elec       q    Type
REMARK                         _______ _______ _______ _____ _____    ______ ____
ROOT
ATOM      1  CB  SER A   8      50.854  19.281  54.576  0.00  0.00    +0.098 C 
ENDROOT
BRANCH   1   2
ATOM      2  SG  SER A   8      50.039  20.435  53.455  0.00  0.00    -0.080 S 
BRANCH   2   3
ATOM      3  SG  TRP A   4      51.090  20.236  51.753  0.00  0.00    -0.080 S 
BRANCH   3   4
ATOM      4  CB  TRP A   4      50.369  18.791  50.965  0.00  0.00    +0.098 C 
BRANCH   4   5
ATOM      5  CA  TRP A   4      48.796  18.765  50.798  0.00  0.00    +0.160 C 
BRANCH   5   6
ATOM      6  C   TRP A   4      48.305  19.636  49.660  0.00  0.00    +0.242 C 
ATOM      7  N   GLN A   5      48.593  20.905  49.701  0.00  0.00    -0.297 N 
ATOM      8  H   GLN A   5      49.144  21.314  50.482  0.00  0.00    +0.150 HD
ATOM      9  O   TRP A   4      47.680  19.135  48.736  0.00  0.00    -0.273 OA
BRANCH   7  10
ATOM     10  CA  GLN A   5      48.094  21.744  48.572  0.00  0.00    +0.149 C 
BRANCH  10  11
ATOM     11  C   GLN A   5      48.799  21.351  47.261  0.00  0.00    +0.241 C 
ATOM     12  O   GLN A   5      49.978  21.030  47.191  0.00  0.00    -0.273 OA
ATOM     13  N   GLY A   6      47.979  21.391  46.236  0.00  0.00    -0.295 N 
ATOM     14  H   GLY A   6      46.993  21.683  46.389  0.00  0.00    +0.150 HD
BRANCH  13  15
ATOM     15  CA  GLY A   6      48.420  21.032  44.865  0.00  0.00    +0.176 C 
BRANCH  15  16
ATOM     16  C   GLY A   6      47.796  19.651  44.633  0.00  0.00    +0.243 C 
ATOM     17  N   ASP A   7      47.420  18.989  45.712  0.00  0.00    -0.296 N 
ATOM     18  H   ASP A   7      47.567  19.423  46.646  0.00  0.00    +0.150 HD
ATOM     19  O   GLY A   6      47.676  19.207  43.512  0.00  0.00    -0.273 OA
BRANCH  17  20
ATOM     20  CA  ASP A   7      46.786  17.626  45.634  0.00  0.00    +0.160 C 
BRANCH  20  21
ATOM     21  C   ASP A   7      45.253  17.765  45.598  0.00  0.00    +0.241 C 
ATOM     22  N   SER A   8      44.789  18.931  45.980  0.00  0.00    -0.295 N 
ATOM     23  H   SER A   8      45.463  19.664  46.281  0.00  0.00    +0.150 HD
ATOM     24  O   ASP A   7      44.575  16.817  45.245  0.00  0.00    -0.273 OA
BRANCH  22  25
ATOM     25  CA  SER A   8      43.325  19.245  45.999  0.00  0.00    +0.178 C 
BRANCH  25  26
ATOM     26  C   SER A   8      42.598  18.735  44.757  0.00  0.00    +0.243 C 
ATOM     27  N   GLY A   9      41.446  18.170  44.984  0.00  0.00    -0.295 N 
ATOM     28  H   GLY A   9      41.095  18.083  45.959  0.00  0.00    +0.150 HD
ATOM     29  O   SER A   8      43.130  18.889  43.668  0.00  0.00    -0.273 OA
BRANCH  27  30
ATOM     30  CA  GLY A   9      40.637  17.654  43.864  0.00  0.00    +0.176 C 
BRANCH  30  31
ATOM     31  C   GLY A   9      40.974  16.232  43.459  0.00  0.00    +0.243 C 
ATOM     32  N   GLY A  10      42.110  15.750  43.868  0.00  0.00    -0.296 N 
ATOM     33  H   GLY A  10      42.745  16.324  44.458  0.00  0.00    +0.150 HD
ATOM     34  O   GLY A   9      40.181  15.600  42.792  0.00  0.00    -0.273 OA
BRANCH  32  35
ATOM     35  CA  GLY A  10      42.486  14.374  43.482  0.00  0.00    +0.163 C 
BRANCH  35  36
ATOM     36  C   GLY A  10      41.784  13.277  44.193  0.00  0.00    +0.229 C 
ATOM     37  O   GLY A  10      41.029  13.504  45.109  0.00  0.00    -0.286 OA
ENDBRANCH  35  36
ENDBRANCH  32  35
ENDBRANCH  30  31
ENDBRANCH  27  30
ENDBRANCH  25  26
BRANCH  25  38
ATOM     38  CB  SER A   8      43.085  20.734  46.007  0.00  0.00    +0.166 C 
BRANCH  38  39
ATOM     39  OG  SER A   8      43.385  21.168  47.321  0.00  0.00    -0.380 OA
ATOM     40  H   SER A   8      43.244  22.146  47.385  0.00  0.00    +0.211 HD
ENDBRANCH  38  39
ENDBRANCH  25  38
ENDBRANCH  22  25
ENDBRANCH  20  21
BRANCH  20  41
ATOM     41  CB  ASP A   7      47.118  16.734  46.870  0.00  0.00    +0.143 C 
BRANCH  41  42
ATOM     42  CG  ASP A   7      48.594  16.316  46.924  0.00  0.00    +0.367 C 
ATOM     43  OD2 ASP A   7      49.132  16.264  48.011  0.00  0.00    -0.246 OA
ATOM     44  OD1 ASP A   7      49.135  16.046  45.870  0.00  0.00    -0.246 OA
ENDBRANCH  41  42
ENDBRANCH  20  41
ENDBRANCH  17  20
ENDBRANCH  15  16
ENDBRANCH  13  15
ENDBRANCH  10  11
BRANCH  10  45
ATOM     45  CB  GLN A   5      48.282  23.273  48.875  0.00  0.00    +0.039 C 
BRANCH  45  46
ATOM     46  CG  GLN A   5      49.430  23.600  49.757  0.00  0.00    +0.087 C 
BRANCH  46  47
ATOM     47  CD  GLN A   5      48.954  24.750  50.657  0.00  0.00    +0.219 C 
ATOM     48  OE1 GLN A   5      48.131  24.546  51.543  0.00  0.00    -0.275 OA
ATOM     49  NE2 GLN A   5      49.431  25.942  50.468  0.00  0.00    -0.329 N 
ATOM     50 HE21 GLN A   5      49.116  26.730  51.069  0.00  0.00    +0.145 HD
ATOM     51 HE22 GLN A   5      50.129  26.110  49.715  0.00  0.00    +0.145 HD
ENDBRANCH  46  47
ENDBRANCH  45  46
ENDBRANCH  10  45
ENDBRANCH   7  10
ENDBRANCH   5   6
BRANCH   5  54
ATOM     52  C   SER A   3      48.316  16.496  51.433  0.00  0.00    +0.243 C 
ATOM     53  O   SER A   3      48.501  16.840  52.602  0.00  0.00    -0.273 OA
ATOM     54  N   TRP A   4      48.420  17.371  50.470  0.00  0.00    -0.296 N 
ATOM     55  H   TRP A   4      48.241  17.092  49.484  0.00  0.00    +0.150 HD
BRANCH  52  56
ATOM     56  CA  SER A   3      47.941  14.996  51.083  0.00  0.00    +0.178 C 
BRANCH  56  58
ATOM     57  C   VAL A   2      49.191  13.920  52.878  0.00  0.00    +0.241 C 
ATOM     58  N   SER A   3      48.054  14.427  52.470  0.00  0.00    -0.295 N 
ATOM     59  H   SER A   3      47.230  14.436  53.105  0.00  0.00    +0.150 HD
ATOM     60  O   VAL A   2      50.192  13.840  52.172  0.00  0.00    -0.273 OA
BRANCH  57  61
ATOM     61  CA  VAL A   2      49.228  13.414  54.322  0.00  0.00    +0.160 C 
BRANCH  61  64
ATOM     62  C   ILE A   1      50.720  12.032  55.712  0.00  0.00    +0.238 C 
ATOM     63  O   ILE A   1      49.884  11.956  56.602  0.00  0.00    -0.274 OA
ATOM     64  N   VAL A   2      50.525  12.682  54.584  0.00  0.00    -0.297 N 
ATOM     65  H   VAL A   2      51.274  12.692  53.862  0.00  0.00    +0.150 HD
BRANCH  62  66
ATOM     66  CA  ILE A   1      52.055  11.320  55.930  0.00  0.00    +0.145 C 
BRANCH  66  67
ATOM     67  N   ILE A   1      52.613  11.732  57.258  0.00  0.00    -0.238 NA
ATOM     68  H   ILE A   1      52.020  11.652  58.109  0.00  0.00    +0.142 HD
ENDBRANCH  66  67
BRANCH  66  69
ATOM     69  CB  ILE A   1      51.879   9.823  55.980  0.00  0.00    +0.026 C 
BRANCH  69  70
ATOM     70  CG  ILE A   1      53.267   9.117  55.959  0.00  0.00    -0.000 C 
BRANCH  70  71
ATOM     71  CD  ILE A   1      53.167   7.698  56.595  0.00  0.00    -0.024 C 
BRANCH  71  72
ATOM     72  CE  ILE A   1      53.868   7.734  57.991  0.00  0.00    -0.086 C 
BRANCH  72  73
ATOM     73  NZ  ILE A   1      53.160   8.612  58.983  0.00  0.00    +0.380 N 
ATOM     74  HZ1 ILE A   1      53.673   8.594  59.888  0.00  0.00    -0.089 HD
ATOM     75  HZ2 ILE A   1      52.191   8.261  59.125  0.00  0.00    -0.089 HD
ATOM     76  HZ3 ILE A   1      53.128   9.586  58.621  0.00  0.00    -0.089 HD
ENDBRANCH  72  73
ENDBRANCH  71  72
ENDBRANCH  70  71
ENDBRANCH  69  70
ENDBRANCH  66  69
ENDBRANCH  62  66
ENDBRANCH  61  64
BRANCH  61  77
ATOM     77  CB  VAL A   2      49.177  14.649  55.271  0.00  0.00    +0.143 C 
BRANCH  77  78
ATOM     78  CG  VAL A   2      47.827  15.374  55.430  0.00  0.00    +0.367 C 
ATOM     79  OD2 VAL A   2      47.849  16.373  56.131  0.00  0.00    -0.246 OA
ATOM     80  OD1 VAL A   2      46.852  14.909  54.867  0.00  0.00    -0.246 OA
ENDBRANCH  77  78
ENDBRANCH  61  77
ENDBRANCH  57  61
ENDBRANCH  56  58
BRANCH  56  81
ATOM     81  CB  SER A   3      46.461  14.879  50.498  0.00  0.00    +0.166 C 
BRANCH  81  82
ATOM     82  OG  SER A   3      45.561  15.411  51.443  0.00  0.00    -0.380 OA
ATOM     83  H   SER A   3      45.631  14.900  52.288  0.00  0.00    +0.211 HD
ENDBRANCH  81  82
ENDBRANCH  56  81
ENDBRANCH  52  56
ENDBRANCH   5  54
ENDBRANCH   4   5
ENDBRANCH   3   4
ENDBRANCH   2   3
ENDBRANCH   1   2
BRANCH   1  84
ATOM     84  CA  SER A   8      50.153  19.183  55.971  0.00  0.00    +0.160 C 
BRANCH  84  85
ATOM     85  N   SER A   8      50.014  20.505  56.615  0.00  0.00    -0.296 N 
ATOM     86  H   SER A   8      50.832  20.935  57.092  0.00  0.00    +0.150 HD
ATOM     87  C   ASP A   7      48.885  21.131  56.590  0.00  0.00    +0.243 C 
ATOM     88  O   ASP A   7      47.882  20.705  56.025  0.00  0.00    -0.273 OA
BRANCH  87  89
ATOM     89  CA  ASP A   7      48.842  22.484  57.304  0.00  0.00    +0.176 C 
BRANCH  89  90
ATOM     90  N   ASP A   7      47.403  22.680  57.693  0.00  0.00    -0.295 N 
ATOM     91  C   GLY A   6      46.819  21.816  58.484  0.00  0.00    +0.243 C 
ATOM     92  O   GLY A   6      47.355  20.826  58.957  0.00  0.00    -0.273 OA
ATOM     93  H   ASP A   7      46.873  23.500  57.335  0.00  0.00    +0.150 HD
BRANCH  91  94
ATOM     94  CA  GLY A   6      45.361  22.088  58.811  0.00  0.00    +0.178 C 
BRANCH  94  95
ATOM     95  N   GLY A   6      44.680  20.988  58.048  0.00  0.00    -0.295 N 
ATOM     96  H   GLY A   6      44.871  20.003  58.321  0.00  0.00    +0.150 HD
ATOM     97  C   GLN A   5      43.862  21.211  57.060  0.00  0.00    +0.243 C 
ATOM     98  O   GLN A   5      43.586  22.322  56.662  0.00  0.00    -0.273 OA
BRANCH  97  99
ATOM     99  CA  GLN A   5      43.214  20.026  56.354  0.00  0.00    +0.176 C 
BRANCH  99 100
ATOM    100  N   GLN A   5      42.497  20.558  55.144  0.00  0.00    -0.295 N 
ATOM    101  H   GLN A   5      42.456  21.585  54.984  0.00  0.00    +0.150 HD
ATOM    102  C   TRP A   4      41.926  19.753  54.293  0.00  0.00    +0.241 C 
ATOM    103  O   TRP A   4      41.939  18.548  54.398  0.00  0.00    -0.273 OA
BRANCH 102 104
ATOM    104  CA  TRP A   4      41.237  20.398  53.129  0.00  0.00    +0.153 C 
BRANCH 104 105
ATOM    105  N   TRP A   4      40.521  19.433  52.265  0.00  0.00    -0.297 N 
ATOM    106  H   TRP A   4      40.194  18.523  52.648  0.00  0.00    +0.150 HD
ATOM    107  C   SER A   3      40.305  19.743  51.011  0.00  0.00    +0.243 C 
ATOM    108  O   SER A   3      40.665  20.799  50.515  0.00  0.00    -0.273 OA
BRANCH 107 109
ATOM    109  CA  SER A   3      39.549  18.741  50.134  0.00  0.00    +0.178 C 
BRANCH 109 110
ATOM    110  N   SER A   3      40.229  17.451  49.868  0.00  0.00    -0.295 N 
ATOM    111  H   SER A   3      40.419  16.795  50.652  0.00  0.00    +0.150 HD
ATOM    112  C   VAL A   2      40.593  17.132  48.647  0.00  0.00    +0.241 C 
ATOM    113  O   VAL A   2      40.427  17.861  47.680  0.00  0.00    -0.273 OA
BRANCH 112 114
ATOM    114  CA  VAL A   2      41.273  15.752  48.503  0.00  0.00    +0.148 C 
BRANCH 114 115
ATOM    115  N   VAL A   2      40.378  14.969  47.604  0.00  0.00    -0.297 N 
ATOM    116  C   ILE A   1      39.132  14.704  47.943  0.00  0.00    +0.238 C 
ATOM    117  O   ILE A   1      38.630  15.054  49.009  0.00  0.00    -0.274 OA
ATOM    118  H   VAL A   2      40.743  14.626  46.693  0.00  0.00    +0.150 HD
BRANCH 116 119
ATOM    119  CA  ILE A   1      38.295  13.902  46.930  0.00  0.00    +0.145 C 
BRANCH 119 120
ATOM    120  N   ILE A   1      37.692  12.806  47.731  0.00  0.00    -0.238 NA
ATOM    121  H   ILE A   1      37.192  13.055  48.609  0.00  0.00    +0.142 HD
ENDBRANCH 119 120
BRANCH 119 122
ATOM    122  CB  ILE A   1      37.203  14.793  46.318  0.00  0.00    +0.025 C 
ATOM    123  CG2 ILE A   1      37.856  15.937  45.519  0.00  0.00    +0.002 C 
BRANCH 122 124
ATOM    124  CG1 ILE A   1      36.336  13.926  45.343  0.00  0.00    +0.002 C 
ATOM    125  CD1 ILE A   1      35.138  14.715  44.820  0.00  0.00    +0.000 C 
ENDBRANCH 122 124
ENDBRANCH 119 122
ENDBRANCH 116 119
ENDBRANCH 114 115
BRANCH 114 126
ATOM    126  CB  VAL A   2      42.661  15.868  47.849  0.00  0.00    +0.027 C 
ATOM    127  CG2 VAL A   2      43.611  16.688  48.748  0.00  0.00    +0.002 C 
ATOM    128  CG1 VAL A   2      43.310  14.492  47.630  0.00  0.00    +0.002 C 
ENDBRANCH 114 126
ENDBRANCH 112 114
ENDBRANCH 109 110
BRANCH 109 129
ATOM    129  CB  SER A   3      38.151  18.338  50.731  0.00  0.00    +0.166 C 
BRANCH 129 130
ATOM    130  OG  SER A   3      37.367  19.502  50.889  0.00  0.00    -0.380 OA
ATOM    131  H   SER A   3      37.242  19.937  50.008  0.00  0.00    +0.211 HD
ENDBRANCH 129 130
ENDBRANCH 109 129
ENDBRANCH 107 109
ENDBRANCH 104 105
BRANCH 104 132
ATOM    132  CB  TRP A   4      40.256  21.434  53.640  0.00  0.00    +0.057 C 
BRANCH 132 133
ATOM    133  CG  TRP A   4      39.041  20.944  54.464  0.00  0.00    -0.002 A 
ATOM    134  CD2 TRP A   4      38.894  21.018  55.820  0.00  0.00    +0.013 A 
ATOM    135  CE3 TRP A   4      39.753  21.459  56.825  0.00  0.00    +0.001 A 
ATOM    136  CZ3 TRP A   4      39.336  21.419  58.175  0.00  0.00    +0.000 A 
ATOM    137  CH2 TRP A   4      38.077  20.936  58.518  0.00  0.00    +0.001 A 
ATOM    138  CZ2 TRP A   4      37.217  20.491  57.517  0.00  0.00    +0.017 A 
ATOM    139  CE2 TRP A   4      37.632  20.531  56.183  0.00  0.00    +0.056 A 
ATOM    140  NE1 TRP A   4      37.129  20.205  55.004  0.00  0.00    -0.352 N 
ATOM    141  HE1 TRP A   4      36.174  19.803  54.911  0.00  0.00    +0.166 HD
ATOM    142  CD1 TRP A   4      37.901  20.415  53.947  0.00  0.00    +0.068 A 
ENDBRANCH 132 133
ENDBRANCH 104 132
ENDBRANCH 102 104
ENDBRANCH  99 100
ENDBRANCH  97  99
ENDBRANCH  94  95
BRANCH  94 143
ATOM    143  CB  GLY A   6      45.131  21.933  60.313  0.00  0.00    +0.166 C 
BRANCH 143 144
ATOM    144  O   GLY A   6      45.644  23.142  60.852  0.00  0.00    -0.380 OA
ATOM    145  H   GLY A   6      45.538  23.134  61.836  0.00  0.00    +0.211 HD
ENDBRANCH 143 144
ENDBRANCH  94 143
ENDBRANCH  91  94
ENDBRANCH  89  90
ENDBRANCH  87  89
ENDBRANCH  84  85
BRANCH  84 146
ATOM    146  C   SER A   8      51.014  18.346  56.883  0.00  0.00    +0.242 C 
ATOM    147  O   SER A   8      52.014  18.809  57.391  0.00  0.00    -0.273 OA
ATOM    148  N   GLY A   9      50.585  17.134  57.045  0.00  0.00    -0.297 N 
ATOM    149  H   GLY A   9      49.709  16.867  56.553  0.00  0.00    +0.150 HD
BRANCH 148 150
ATOM    150  CA  GLY A   9      51.243  16.098  57.875  0.00  0.00    +0.149 C 
ATOM    151  CB  GLY A   9      52.541  15.664  57.131  0.00  0.00    +0.031 C 
BRANCH 150 152
ATOM    152  C   GLY A   9      51.547  16.505  59.311  0.00  0.00    +0.241 C 
ATOM    153  O   GLY A   9      52.511  16.026  59.872  0.00  0.00    -0.273 OA
ATOM    154  N   GLY A  10      50.723  17.342  59.862  0.00  0.00    -0.298 N 
ATOM    155  H   GLY A  10      49.910  17.707  59.325  0.00  0.00    +0.150 HD
BRANCH 154 156
ATOM    156  CA  GLY A  10      50.950  17.777  61.273  0.00  0.00    +0.137 C 
BRANCH 156 157
ATOM    157  C   GLY A  10      50.292  16.715  62.171  0.00  0.00    +0.227 C 
ATOM    158  O   GLY A  10      49.359  16.024  61.768  0.00  0.00    -0.286 OA
ENDBRANCH 156 157
BRANCH 156 159
ATOM    159  CB  GLY A  10      50.266  19.143  61.603  0.00  0.00    +0.037 C 
BRANCH 159 160
ATOM    160  CG  GLY A  10      50.899  20.344  60.871  0.00  0.00    +0.087 C 
BRANCH 160 161
ATOM    161  CD  GLY A  10      52.358  20.532  61.280  0.00  0.00    +0.219 C 
ATOM    162  OE1 GLY A  10      52.658  20.876  62.408  0.00  0.00    -0.275 OA
ATOM    163  NE2 GLY A  10      53.298  20.319  60.414  0.00  0.00    -0.329 N 
ATOM    164 HE21 GLY A  10      54.294  20.442  60.687  0.00  0.00    +0.145 HD
ATOM    165 HE22 GLY A  10      53.056  20.025  59.446  0.00  0.00    +0.145 HD
ENDBRANCH 160 161
ENDBRANCH 159 160
ENDBRANCH 156 159
ENDBRANCH 154 156
ENDBRANCH 150 152
ENDBRANCH 148 150
ENDBRANCH  84 146
ENDBRANCH   1  84
TORSDOF 73
REMARK  Name = ../refined-set-2016/1c5p/1c5p_pocket.pdb
REMARK  121 active torsions:
REMARK  status: ('A' for Active; 'I' for Inactive)
REMARK    1  A    between atoms: _1  and  _5
REMARK    2  A    between atoms: _5  and  _6
REMARK    3  A    between atoms: _5  and  _8
REMARK    4  A    between atoms: _8  and  _9
REMARK    5  A    between atoms: _12  and  _14
REMARK    6  A    between atoms: _14  and  _15
REMARK    7  A    between atoms: _14  and  _17
REMARK    8  A    between atoms: _20  and  _22
REMARK    9  A    between atoms: _22  and  _23
REMARK   10  A    between atoms: _22  and  _25
REMARK   11  A    between atoms: _25  and  _26
REMARK   12  A    between atoms: _31  and  _33
REMARK   13  A    between atoms: _33  and  _34
REMARK   14  A    between atoms: _33  and  _36
REMARK   15  A    between atoms: _36  and  _37
REMARK   16  A    between atoms: _40  and  _42
REMARK   17  A    between atoms: _42  and  _43
REMARK   18  A    between atoms: _42  and  _45
REMARK   19  A    between atoms: _45  and  _46
REMARK   20  A    between atoms: _49  and  _51
REMARK   21  A    between atoms: _51  and  _52
REMARK   22  A    between atoms: _51  and  _54
REMARK   23  A    between atoms: _54  and  _55
REMARK   24  A    between atoms: _60  and  _62
REMARK   25  A    between atoms: _62  and  _63
REMARK   26  A    between atoms: _62  and  _65
REMARK   27  A    between atoms: _65  and  _66
REMARK   28  A    between atoms: _71  and  _72
REMARK   29  A    between atoms: _74  and  _76
REMARK   30  A    between atoms: _76  and  _77
REMARK   31  A    between atoms: _80  and  _82
REMARK   32  A    between atoms: _82  and  _83
REMARK   33  A    between atoms: _82  and  _85
REMARK   34  A    between atoms: _85  and  _86
REMARK   35  A    between atoms: _86  and  _87
REMARK   36  A    between atoms: _87  and  _88
REMARK   37  A    between atoms: _88  and  _89
REMARK   38  A    between atoms: _93  and  _95
REMARK   39  A    between atoms: _95  and  _96
REMARK   40  A    between atoms: _95  and  _98
REMARK   41  A    between atoms: _98  and  _99
REMARK   42  A    between atoms: _102  and  _104
REMARK   43  A    between atoms: _104  and  _105
REMARK   44  A    between atoms: _104  and  _107
REMARK   45  A    between atoms: _107  and  _108
REMARK   46  A    between atoms: _110  and  _112
REMARK   47  A    between atoms: _112  and  _113
REMARK   48  A    between atoms: _112  and  _115
REMARK   49  A    between atoms: _115  and  _116
REMARK   50  A    between atoms: _116  and  _226
REMARK   51  A    between atoms: _117  and  _119
REMARK   52  A    between atoms: _119  and  _120
REMARK   53  A    between atoms: _119  and  _122
REMARK   54  A    between atoms: _122  and  _123
REMARK   55  A    between atoms: _123  and  _124
REMARK   56  A    between atoms: _129  and  _131
REMARK   57  A    between atoms: _131  and  _132
REMARK   58  A    between atoms: _134  and  _136
REMARK   59  A    between atoms: _136  and  _137
REMARK   60  A    between atoms: _136  and  _139
REMARK   61  A    between atoms: _139  and  _140
REMARK   62  A    between atoms: _143  and  _145
REMARK   63  A    between atoms: _145  and  _146
REMARK   64  A    between atoms: _145  and  _148
REMARK   65  A    between atoms: _148  and  _149
REMARK   66  A    between atoms: _151  and  _153
REMARK   67  A    between atoms: _153  and  _154
REMARK   68  A    between atoms: _156  and  _158
REMARK   69  A    between atoms: _158  and  _159
REMARK   70  A    between atoms: _161  and  _163
REMARK   71  A    between atoms: _163  and  _164
REMARK   72  A    between atoms: _163  and  _166
REMARK   73  A    between atoms: _166  and  _167
REMARK   74  A    between atoms: _170  and  _172
REMARK   75  A    between atoms: _172  and  _173
REMARK   76  A    between atoms: _172  and  _175
REMARK   77  A    between atoms: _178  and  _180
REMARK   78  A    between atoms: _180  and  _181
REMARK   79  A    between atoms: _180  and  _183
REMARK   80  A    between atoms: _183  and  _184
REMARK   81  A    between atoms: _186  and  _188
REMARK   82  A    between atoms: _188  and  _189
REMARK   83  A    between atoms: _188  and  _191
REMARK   84  A    between atoms: _191  and  _192
REMARK   85  A    between atoms: _202  and  _204
REMARK   86  A    between atoms: _204  and  _205
REMARK   87  A    between atoms: _207  and  _209
REMARK   88  A    between atoms: _209  and  _210
REMARK   89  A    between atoms: _209  and  _212
REMARK   90  A    between atoms: _212  and  _213
REMARK   91  A    between atoms: _215  and  _217
REMARK   92  A    between atoms: _217  and  _218
REMARK   93  A    between atoms: _220  and  _222
REMARK   94  A    between atoms: _222  and  _223
REMARK   95  A    between atoms: _222  and  _225
REMARK   96  A    between atoms: _225  and  _226
REMARK   97  A    between atoms: _227  and  _229
REMARK   98  A    between atoms: _229  and  _230
REMARK   99  A    between atoms: _233  and  _235
REMARK  100  A    between atoms: _235  and  _236
REMARK  101  A    between atoms: _235  and  _238
REMARK  102  A    between atoms: _238  and  _239
REMARK  103  A    between atoms: _239  and  _240
REMARK  104  A    between atoms: _245  and  _247
REMARK  105  A    between atoms: _247  and  _248
REMARK  106  A    between atoms: _247  and  _250
REMARK  107  A    between atoms: _250  and  _251
REMARK  108  A    between atoms: _251  and  _252
REMARK  109  A    between atoms: _252  and  _253
REMARK  110  A    between atoms: _253  and  _254
REMARK  111  A    between atoms: _259  and  _260
REMARK  112  A    between atoms: _265  and  _267
REMARK  113  A    between atoms: _267  and  _268
REMARK  114  A    between atoms: _270  and  _272
REMARK  115  A    between atoms: _272  and  _273
REMARK  116  A    between atoms: _272  and  _275
REMARK  117  A    between atoms: _278  and  _280
REMARK  118  A    between atoms: _280  and  _281
REMARK  119  A    between atoms: _280  and  _283
REMARK  120  A    between atoms: _283  and  _284
REMARK  121  A    between atoms: _289  and  _290
REMARK                            x       y       z     vdW  Elec       q    Type
REMARK                         _______ _______ _______ _____ _____    ______ ____
ROOT
ATOM      1  C   GLY A   3      41.945  15.109  55.958  0.00  0.00    +0.243 C 
ATOM      2  O   GLY A   3      41.547  14.091  56.511  0.00  0.00    -0.273 OA
ATOM      3  N   VAL A   4      41.196  15.999  55.372  0.00  0.00    -0.297 N 
ATOM      4  H   VAL A   4      41.656  16.823  54.935  0.00  0.00    +0.150 HD
ENDROOT
BRANCH   1   5
ATOM      5  CA  GLY A   3      43.431  15.392  55.923  0.00  0.00    +0.176 C 
BRANCH   5   8
ATOM      6  C   PRO A   2      43.992  15.241  58.225  0.00  0.00    +0.241 C 
ATOM      7  O   PRO A   2      43.471  16.330  58.361  0.00  0.00    -0.273 OA
ATOM      8  N   GLY A   3      44.027  14.671  57.057  0.00  0.00    -0.295 N 
ATOM      9  H   GLY A   3      44.463  13.735  56.929  0.00  0.00    +0.150 HD
BRANCH   6  15
ATOM     10  C   LYS A   1      45.576  16.390  60.720  0.00  0.00    +0.241 C 
ATOM     11  N   PRO A   2      44.774  15.341  60.681  0.00  0.00    -0.272 N 
ATOM     12  CD  PRO A   2      43.906  14.868  61.811  0.00  0.00    +0.094 C 
ATOM     13  CG  PRO A   2      42.948  13.888  61.135  0.00  0.00    +0.024 C 
ATOM     14  CB  PRO A   2      43.780  13.275  59.936  0.00  0.00    +0.031 C 
ATOM     15  CA  PRO A   2      44.631  14.477  59.443  0.00  0.00    +0.152 C 
ATOM     16  O   LYS A   1      46.300  16.723  59.787  0.00  0.00    -0.273 OA
BRANCH  10  17
ATOM     17  CA  LYS A   1      45.599  17.210  62.032  0.00  0.00    +0.145 C 
BRANCH  17  18
ATOM     18  N   LYS A   1      46.300  16.371  63.065  0.00  0.00    -0.238 NA
ATOM     19  H   LYS A   1      47.208  15.927  62.820  0.00  0.00    +0.142 HD
ENDBRANCH  17  18
BRANCH  17  20
ATOM     20  CB  LYS A   1      46.357  18.517  61.821  0.00  0.00    +0.026 C 
BRANCH  20  21
ATOM     21  CG  LYS A   1      46.200  19.424  63.074  0.00  0.00    -0.000 C 
BRANCH  21  22
ATOM     22  CD  LYS A   1      44.702  19.877  63.225  0.00  0.00    -0.024 C 
BRANCH  22  23
ATOM     23  CE  LYS A   1      44.507  20.811  64.463  0.00  0.00    -0.086 C 
BRANCH  23  24
ATOM     24  NZ  LYS A   1      43.063  21.208  64.566  0.00  0.00    +0.380 N 
ATOM     25  HZ1 LYS A   1      42.934  21.829  65.390  0.00  0.00    -0.089 HD
ATOM     26  HZ2 LYS A   1      42.478  20.356  64.678  0.00  0.00    -0.089 HD
ATOM     27  HZ3 LYS A   1      42.781  21.713  63.702  0.00  0.00    -0.089 HD
ENDBRANCH  23  24
ENDBRANCH  22  23
ENDBRANCH  21  22
ENDBRANCH  20  21
ENDBRANCH  17  20
ENDBRANCH  10  17
ENDBRANCH   6  15
ENDBRANCH   5   8
ENDBRANCH   1   5
BRANCH   3  28
ATOM     28  CA  VAL A   4      39.723  15.894  55.299  0.00  0.00    +0.149 C 
BRANCH  28  29
ATOM     29  C   VAL A   4      39.434  15.766  53.794  0.00  0.00    +0.241 C 
ATOM     30  N   TYR A   5      38.559  14.842  53.513  0.00  0.00    -0.298 N 
ATOM     31  H   TYR A   5      38.141  14.320  54.309  0.00  0.00    +0.150 HD
ATOM     32  O   VAL A   4      39.985  16.476  52.969  0.00  0.00    -0.273 OA
BRANCH  30  33
ATOM     33  CA  TYR A   5      38.114  14.478  52.153  0.00  0.00    +0.141 C 
BRANCH  33  34
ATOM     34  C   TYR A   5      36.604  14.528  51.952  0.00  0.00    +0.227 C 
ATOM     35  O   TYR A   5      35.863  14.264  52.888  0.00  0.00    -0.286 OA
ENDBRANCH  33  34
BRANCH  33  36
ATOM     36  CB  TYR A   5      38.614  13.012  51.871  0.00  0.00    +0.054 C 
BRANCH  36  37
ATOM     37  CG  TYR A   5      40.126  12.928  52.104  0.00  0.00    -0.020 A 
ATOM     38  CD2 TYR A   5      40.689  12.725  53.361  0.00  0.00    -0.001 A 
ATOM     39  CE2 TYR A   5      42.047  12.741  53.531  0.00  0.00    +0.036 A 
ATOM     40  CZ  TYR A   5      42.873  12.960  52.447  0.00  0.00    +0.134 A 
ATOM     41  CE1 TYR A   5      42.309  13.152  51.192  0.00  0.00    +0.036 A 
ATOM     42  CD1 TYR A   5      40.952  13.135  51.022  0.00  0.00    -0.001 A 
BRANCH  40  43
ATOM     43  OH  TYR A   5      44.245  13.050  52.529  0.00  0.00    -0.506 OA
ATOM     44  HH  TYR A   5      44.609  12.205  52.894  0.00  0.00    +0.292 HD
ENDBRANCH  40  43
ENDBRANCH  36  37
ENDBRANCH  33  36
ENDBRANCH  30  33
ENDBRANCH  28  29
BRANCH  28  45
ATOM     45  CB  VAL A   4      39.109  17.170  55.951  0.00  0.00    +0.027 C 
ATOM     46  CG2 VAL A   4      39.704  17.417  57.389  0.00  0.00    +0.002 C 
ATOM     47  CG1 VAL A   4      37.597  16.967  56.064  0.00  0.00    +0.002 C 
ENDBRANCH  28  45
ENDBRANCH   3  28
TORSDOF 18
REMARK  Name = ../refined-set-2016/1c5p/1c5p_pocket.pdb
REMARK  121 active torsions:
REMARK  status: ('A' for Active; 'I' for Inactive)
REMARK    1  A    between atoms: _1  and  _5
REMARK    2  A    between atoms: _5  and  _6
REMARK    3  A    between atoms: _5  and  _8
REMARK    4  A    between atoms: _8  and  _9
REMARK    5  A    between atoms: _12  and  _14
REMARK    6  A    between atoms: _14  and  _15
REMARK    7  A    between atoms: _14  and  _17
REMARK    8  A    between atoms: _20  and  _22
REMARK    9  A    between atoms: _22  and  _23
REMARK   10  A    between atoms: _22  and  _25
REMARK   11  A    between atoms: _25  and  _26
REMARK   12  A    between atoms: _31  and  _33
REMARK   13  A    between atoms: _33  and  _34
REMARK   14  A    between atoms: _33  and  _36
REMARK   15  A    between atoms: _36  and  _37
REMARK   16  A    between atoms: _40  and  _42
REMARK   17  A    between atoms: _42  and  _43
REMARK   18  A    between atoms: _42  and  _45
REMARK   19  A    between atoms: _45  and  _46
REMARK   20  A    between atoms: _49  and  _51
REMARK   21  A    between atoms: _51  and  _52
REMARK   22  A    between atoms: _51  and  _54
REMARK   23  A    between atoms: _54  and  _55
REMARK   24  A    between atoms: _60  and  _62
REMARK   25  A    between atoms: _62  and  _63
REMARK   26  A    between atoms: _62  and  _65
REMARK   27  A    between atoms: _65  and  _66
REMARK   28  A    between atoms: _71  and  _72
REMARK   29  A    between atoms: _74  and  _76
REMARK   30  A    between atoms: _76  and  _77
REMARK   31  A    between atoms: _80  and  _82
REMARK   32  A    between atoms: _82  and  _83
REMARK   33  A    between atoms: _82  and  _85
REMARK   34  A    between atoms: _85  and  _86
REMARK   35  A    between atoms: _86  and  _87
REMARK   36  A    between atoms: _87  and  _88
REMARK   37  A    between atoms: _88  and  _89
REMARK   38  A    between atoms: _93  and  _95
REMARK   39  A    between atoms: _95  and  _96
REMARK   40  A    between atoms: _95  and  _98
REMARK   41  A    between atoms: _98  and  _99
REMARK   42  A    between atoms: _102  and  _104
REMARK   43  A    between atoms: _104  and  _105
REMARK   44  A    between atoms: _104  and  _107
REMARK   45  A    between atoms: _107  and  _108
REMARK   46  A    between atoms: _110  and  _112
REMARK   47  A    between atoms: _112  and  _113
REMARK   48  A    between atoms: _112  and  _115
REMARK   49  A    between atoms: _115  and  _116
REMARK   50  A    between atoms: _116  and  _226
REMARK   51  A    between atoms: _117  and  _119
REMARK   52  A    between atoms: _119  and  _120
REMARK   53  A    between atoms: _119  and  _122
REMARK   54  A    between atoms: _122  and  _123
REMARK   55  A    between atoms: _123  and  _124
REMARK   56  A    between atoms: _129  and  _131
REMARK   57  A    between atoms: _131  and  _132
REMARK   58  A    between atoms: _134  and  _136
REMARK   59  A    between atoms: _136  and  _137
REMARK   60  A    between atoms: _136  and  _139
REMARK   61  A    between atoms: _139  and  _140
REMARK   62  A    between atoms: _143  and  _145
REMARK   63  A    between atoms: _145  and  _146
REMARK   64  A    between atoms: _145  and  _148
REMARK   65  A    between atoms: _148  and  _149
REMARK   66  A    between atoms: _151  and  _153
REMARK   67  A    between atoms: _153  and  _154
REMARK   68  A    between atoms: _156  and  _158
REMARK   69  A    between atoms: _158  and  _159
REMARK   70  A    between atoms: _161  and  _163
REMARK   71  A    between atoms: _163  and  _164
REMARK   72  A    between atoms: _163  and  _166
REMARK   73  A    between atoms: _166  and  _167
REMARK   74  A    between atoms: _170  and  _172
REMARK   75  A    between atoms: _172  and  _173
REMARK   76  A    between atoms: _172  and  _175
REMARK   77  A    between atoms: _178  and  _180
REMARK   78  A    between atoms: _180  and  _181
REMARK   79  A    between atoms: _180  and  _183
REMARK   80  A    between atoms: _183  and  _184
REMARK   81  A    between atoms: _186  and  _188
REMARK   82  A    between atoms: _188  and  _189
REMARK   83  A    between atoms: _188  and  _191
REMARK   84  A    between atoms: _191  and  _192
REMARK   85  A    between atoms: _202  and  _204
REMARK   86  A    between atoms: _204  and  _205
REMARK   87  A    between atoms: _207  and  _209
REMARK   88  A    between atoms: _209  and  _210
REMARK   89  A    between atoms: _209  and  _212
REMARK   90  A    between atoms: _212  and  _213
REMARK   91  A    between atoms: _215  and  _217
REMARK   92  A    between atoms: _217  and  _218
REMARK   93  A    between atoms: _220  and  _222
REMARK   94  A    between atoms: _222  and  _223
REMARK   95  A    between atoms: _222  and  _225
REMARK   96  A    between atoms: _225  and  _226
REMARK   97  A    between atoms: _227  and  _229
REMARK   98  A    between atoms: _229  and  _230
REMARK   99  A    between atoms: _233  and  _235
REMARK  100  A    between atoms: _235  and  _236
REMARK  101  A    between atoms: _235  and  _238
REMARK  102  A    between atoms: _238  and  _239
REMARK  103  A    between atoms: _239  and  _240
REMARK  104  A    between atoms: _245  and  _247
REMARK  105  A    between atoms: _247  and  _248
REMARK  106  A    between atoms: _247  and  _250
REMARK  107  A    between atoms: _250  and  _251
REMARK  108  A    between atoms: _251  and  _252
REMARK  109  A    between atoms: _252  and  _253
REMARK  110  A    between atoms: _253  and  _254
REMARK  111  A    between atoms: _259  and  _260
REMARK  112  A    between atoms: _265  and  _267
REMARK  113  A    between atoms: _267  and  _268
REMARK  114  A    between atoms: _270  and  _272
REMARK  115  A    between atoms: _272  and  _273
REMARK  116  A    between atoms: _272  and  _275
REMARK  117  A    between atoms: _278  and  _280
REMARK  118  A    between atoms: _280  and  _281
REMARK  119  A    between atoms: _280  and  _283
REMARK  120  A    between atoms: _283  and  _284
REMARK  121  A    between atoms: _289  and  _290
REMARK                            x       y       z     vdW  Elec       q    Type
REMARK                         _______ _______ _______ _____ _____    ______ ____
ROOT
ATOM      1  O   HOH     1      48.191  18.379  58.689  0.00  0.00    +0.000 OA
ENDROOT
TORSDOF 0
REMARK  Name = ../refined-set-2016/1c5p/1c5p_pocket.pdb
REMARK  121 active torsions:
REMARK  status: ('A' for Active; 'I' for Inactive)
REMARK    1  A    between atoms: _1  and  _5
REMARK    2  A    between atoms: _5  and  _6
REMARK    3  A    between atoms: _5  and  _8
REMARK    4  A    between atoms: _8  and  _9
REMARK    5  A    between atoms: _12  and  _14
REMARK    6  A    between atoms: _14  and  _15
REMARK    7  A    between atoms: _14  and  _17
REMARK    8  A    between atoms: _20  and  _22
REMARK    9  A    between atoms: _22  and  _23
REMARK   10  A    between atoms: _22  and  _25
REMARK   11  A    between atoms: _25  and  _26
REMARK   12  A    between atoms: _31  and  _33
REMARK   13  A    between atoms: _33  and  _34
REMARK   14  A    between atoms: _33  and  _36
REMARK   15  A    between atoms: _36  and  _37
REMARK   16  A    between atoms: _40  and  _42
REMARK   17  A    between atoms: _42  and  _43
REMARK   18  A    between atoms: _42  and  _45
REMARK   19  A    between atoms: _45  and  _46
REMARK   20  A    between atoms: _49  and  _51
REMARK   21  A    between atoms: _51  and  _52
REMARK   22  A    between atoms: _51  and  _54
REMARK   23  A    between atoms: _54  and  _55
REMARK   24  A    between atoms: _60  and  _62
REMARK   25  A    between atoms: _62  and  _63
REMARK   26  A    between atoms: _62  and  _65
REMARK   27  A    between atoms: _65  and  _66
REMARK   28  A    between atoms: _71  and  _72
REMARK   29  A    between atoms: _74  and  _76
REMARK   30  A    between atoms: _76  and  _77
REMARK   31  A    between atoms: _80  and  _82
REMARK   32  A    between atoms: _82  and  _83
REMARK   33  A    between atoms: _82  and  _85
REMARK   34  A    between atoms: _85  and  _86
REMARK   35  A    between atoms: _86  and  _87
REMARK   36  A    between atoms: _87  and  _88
REMARK   37  A    between atoms: _88  and  _89
REMARK   38  A    between atoms: _93  and  _95
REMARK   39  A    between atoms: _95  and  _96
REMARK   40  A    between atoms: _95  and  _98
REMARK   41  A    between atoms: _98  and  _99
REMARK   42  A    between atoms: _102  and  _104
REMARK   43  A    between atoms: _104  and  _105
REMARK   44  A    between atoms: _104  and  _107
REMARK   45  A    between atoms: _107  and  _108
REMARK   46  A    between atoms: _110  and  _112
REMARK   47  A    between atoms: _112  and  _113
REMARK   48  A    between atoms: _112  and  _115
REMARK   49  A    between atoms: _115  and  _116
REMARK   50  A    between atoms: _116  and  _226
REMARK   51  A    between atoms: _117  and  _119
REMARK   52  A    between atoms: _119  and  _120
REMARK   53  A    between atoms: _119  and  _122
REMARK   54  A    between atoms: _122  and  _123
REMARK   55  A    between atoms: _123  and  _124
REMARK   56  A    between atoms: _129  and  _131
REMARK   57  A    between atoms: _131  and  _132
REMARK   58  A    between atoms: _134  and  _136
REMARK   59  A    between atoms: _136  and  _137
REMARK   60  A    between atoms: _136  and  _139
REMARK   61  A    between atoms: _139  and  _140
REMARK   62  A    between atoms: _143  and  _145
REMARK   63  A    between atoms: _145  and  _146
REMARK   64  A    between atoms: _145  and  _148
REMARK   65  A    between atoms: _148  and  _149
REMARK   66  A    between atoms: _151  and  _153
REMARK   67  A    between atoms: _153  and  _154
REMARK   68  A    between atoms: _156  and  _158
REMARK   69  A    between atoms: _158  and  _159
REMARK   70  A    between atoms: _161  and  _163
REMARK   71  A    between atoms: _163  and  _164
REMARK   72  A    between atoms: _163  and  _166
REMARK   73  A    between atoms: _166  and  _167
REMARK   74  A    between atoms: _170  and  _172
REMARK   75  A    between atoms: _172  and  _173
REMARK   76  A    between atoms: _172  and  _175
REMARK   77  A    between atoms: _178  and  _180
REMARK   78  A    between atoms: _180  and  _181
REMARK   79  A    between atoms: _180  and  _183
REMARK   80  A    between atoms: _183  and  _184
REMARK   81  A    between atoms: _186  and  _188
REMARK   82  A    between atoms: _188  and  _189
REMARK   83  A    between atoms: _188  and  _191
REMARK   84  A    between atoms: _191  and  _192
REMARK   85  A    between atoms: _202  and  _204
REMARK   86  A    between atoms: _204  and  _205
REMARK   87  A    between atoms: _207  and  _209
REMARK   88  A    between atoms: _209  and  _210
REMARK   89  A    between atoms: _209  and  _212
REMARK   90  A    between atoms: _212  and  _213
REMARK   91  A    between atoms: _215  and  _217
REMARK   92  A    between atoms: _217  and  _218
REMARK   93  A    between atoms: _220  and  _222
REMARK   94  A    between atoms: _222  and  _223
REMARK   95  A    between atoms: _222  and  _225
REMARK   96  A    between atoms: _225  and  _226
REMARK   97  A    between atoms: _227  and  _229
REMARK   98  A    between atoms: _229  and  _230
REMARK   99  A    between atoms: _233  and  _235
REMARK  100  A    between atoms: _235  and  _236
REMARK  101  A    between atoms: _235  and  _238
REMARK  102  A    between atoms: _238  and  _239
REMARK  103  A    between atoms: _239  and  _240
REMARK  104  A    between atoms: _245  and  _247
REMARK  105  A    between atoms: _247  and  _248
REMARK  106  A    between atoms: _247  and  _250
REMARK  107  A    between atoms: _250  and  _251
REMARK  108  A    between atoms: _251  and  _252
REMARK  109  A    between atoms: _252  and  _253
REMARK  110  A    between atoms: _253  and  _254
REMARK  111  A    between atoms: _259  and  _260
REMARK  112  A    between atoms: _265  and  _267
REMARK  113  A    between atoms: _267  and  _268
REMARK  114  A    between atoms: _270  and  _272
REMARK  115  A    between atoms: _272  and  _273
REMARK  116  A    between atoms: _272  and  _275
REMARK  117  A    between atoms: _278  and  _280
REMARK  118  A    between atoms: _280  and  _281
REMARK  119  A    between atoms: _280  and  _283
REMARK  120  A    between atoms: _283  and  _284
REMARK  121  A    between atoms: _289  and  _290
REMARK                            x       y       z     vdW  Elec       q    Type
REMARK                         _______ _______ _______ _____ _____    ______ ____
ROOT
ATOM      1  O   HOH     1      48.141  14.881  58.739  0.00  0.00    +0.000 OA
ENDROOT
TORSDOF 0
REMARK  Name = ../refined-set-2016/1c5p/1c5p_pocket.pdb
REMARK  121 active torsions:
REMARK  status: ('A' for Active; 'I' for Inactive)
REMARK    1  A    between atoms: _1  and  _5
REMARK    2  A    between atoms: _5  and  _6
REMARK    3  A    between atoms: _5  and  _8
REMARK    4  A    between atoms: _8  and  _9
REMARK    5  A    between atoms: _12  and  _14
REMARK    6  A    between atoms: _14  and  _15
REMARK    7  A    between atoms: _14  and  _17
REMARK    8  A    between atoms: _20  and  _22
REMARK    9  A    between atoms: _22  and  _23
REMARK   10  A    between atoms: _22  and  _25
REMARK   11  A    between atoms: _25  and  _26
REMARK   12  A    between atoms: _31  and  _33
REMARK   13  A    between atoms: _33  and  _34
REMARK   14  A    between atoms: _33  and  _36
REMARK   15  A    between atoms: _36  and  _37
REMARK   16  A    between atoms: _40  and  _42
REMARK   17  A    between atoms: _42  and  _43
REMARK   18  A    between atoms: _42  and  _45
REMARK   19  A    between atoms: _45  and  _46
REMARK   20  A    between atoms: _49  and  _51
REMARK   21  A    between atoms: _51  and  _52
REMARK   22  A    between atoms: _51  and  _54
REMARK   23  A    between atoms: _54  and  _55
REMARK   24  A    between atoms: _60  and  _62
REMARK   25  A    between atoms: _62  and  _63
REMARK   26  A    between atoms: _62  and  _65
REMARK   27  A    between atoms: _65  and  _66
REMARK   28  A    between atoms: _71  and  _72
REMARK   29  A    between atoms: _74  and  _76
REMARK   30  A    between atoms: _76  and  _77
REMARK   31  A    between atoms: _80  and  _82
REMARK   32  A    between atoms: _82  and  _83
REMARK   33  A    between atoms: _82  and  _85
REMARK   34  A    between atoms: _85  and  _86
REMARK   35  A    between atoms: _86  and  _87
REMARK   36  A    between atoms: _87  and  _88
REMARK   37  A    between atoms: _88  and  _89
REMARK   38  A    between atoms: _93  and  _95
REMARK   39  A    between atoms: _95  and  _96
REMARK   40  A    between atoms: _95  and  _98
REMARK   41  A    between atoms: _98  and  _99
REMARK   42  A    between atoms: _102  and  _104
REMARK   43  A    between atoms: _104  and  _105
REMARK   44  A    between atoms: _104  and  _107
REMARK   45  A    between atoms: _107  and  _108
REMARK   46  A    between atoms: _110  and  _112
REMARK   47  A    between atoms: _112  and  _113
REMARK   48  A    between atoms: _112  and  _115
REMARK   49  A    between atoms: _115  and  _116
REMARK   50  A    between atoms: _116  and  _226
REMARK   51  A    between atoms: _117  and  _119
REMARK   52  A    between atoms: _119  and  _120
REMARK   53  A    between atoms: _119  and  _122
REMARK   54  A    between atoms: _122  and  _123
REMARK   55  A    between atoms: _123  and  _124
REMARK   56  A    between atoms: _129  and  _131
REMARK   57  A    between atoms: _131  and  _132
REMARK   58  A    between atoms: _134  and  _136
REMARK   59  A    between atoms: _136  and  _137
REMARK   60  A    between atoms: _136  and  _139
REMARK   61  A    between atoms: _139  and  _140
REMARK   62  A    between atoms: _143  and  _145
REMARK   63  A    between atoms: _145  and  _146
REMARK   64  A    between atoms: _145  and  _148
REMARK   65  A    between atoms: _148  and  _149
REMARK   66  A    between atoms: _151  and  _153
REMARK   67  A    between atoms: _153  and  _154
REMARK   68  A    between atoms: _156  and  _158
REMARK   69  A    between atoms: _158  and  _159
REMARK   70  A    between atoms: _161  and  _163
REMARK   71  A    between atoms: _163  and  _164
REMARK   72  A    between atoms: _163  and  _166
REMARK   73  A    between atoms: _166  and  _167
REMARK   74  A    between atoms: _170  and  _172
REMARK   75  A    between atoms: _172  and  _173
REMARK   76  A    between atoms: _172  and  _175
REMARK   77  A    between atoms: _178  and  _180
REMARK   78  A    between atoms: _180  and  _181
REMARK   79  A    between atoms: _180  and  _183
REMARK   80  A    between atoms: _183  and  _184
REMARK   81  A    between atoms: _186  and  _188
REMARK   82  A    between atoms: _188  and  _189
REMARK   83  A    between atoms: _188  and  _191
REMARK   84  A    between atoms: _191  and  _192
REMARK   85  A    between atoms: _202  and  _204
REMARK   86  A    between atoms: _204  and  _205
REMARK   87  A    between atoms: _207  and  _209
REMARK   88  A    between atoms: _209  and  _210
REMARK   89  A    between atoms: _209  and  _212
REMARK   90  A    between atoms: _212  and  _213
REMARK   91  A    between atoms: _215  and  _217
REMARK   92  A    between atoms: _217  and  _218
REMARK   93  A    between atoms: _220  and  _222
REMARK   94  A    between atoms: _222  and  _223
REMARK   95  A    between atoms: _222  and  _225
REMARK   96  A    between atoms: _225  and  _226
REMARK   97  A    between atoms: _227  and  _229
REMARK   98  A    between atoms: _229  and  _230
REMARK   99  A    between atoms: _233  and  _235
REMARK  100  A    between atoms: _235  and  _236
REMARK  101  A    between atoms: _235  and  _238
REMARK  102  A    between atoms: _238  and  _239
REMARK  103  A    between atoms: _239  and  _240
REMARK  104  A    between atoms: _245  and  _247
REMARK  105  A    between atoms: _247  and  _248
REMARK  106  A    between atoms: _247  and  _250
REMARK  107  A    between atoms: _250  and  _251
REMARK  108  A    between atoms: _251  and  _252
REMARK  109  A    between atoms: _252  and  _253
REMARK  110  A    between atoms: _253  and  _254
REMARK  111  A    between atoms: _259  and  _260
REMARK  112  A    between atoms: _265  and  _267
REMARK  113  A    between atoms: _267  and  _268
REMARK  114  A    between atoms: _270  and  _272
REMARK  115  A    between atoms: _272  and  _273
REMARK  116  A    between atoms: _272  and  _275
REMARK  117  A    between atoms: _278  and  _280
REMARK  118  A    between atoms: _280  and  _281
REMARK  119  A    between atoms: _280  and  _283
REMARK  120  A    between atoms: _283  and  _284
REMARK  121  A    between atoms: _289  and  _290
REMARK                            x       y       z     vdW  Elec       q    Type
REMARK                         _______ _______ _______ _____ _____    ______ ____
ROOT
ATOM      1  O   HOH     1      45.547  12.378  54.769  0.00  0.00    +0.000 OA
ENDROOT
TORSDOF 0
REMARK  Name = ../refined-set-2016/1c5p/1c5p_pocket.pdb
REMARK  121 active torsions:
REMARK  status: ('A' for Active; 'I' for Inactive)
REMARK    1  A    between atoms: _1  and  _5
REMARK    2  A    between atoms: _5  and  _6
REMARK    3  A    between atoms: _5  and  _8
REMARK    4  A    between atoms: _8  and  _9
REMARK    5  A    between atoms: _12  and  _14
REMARK    6  A    between atoms: _14  and  _15
REMARK    7  A    between atoms: _14  and  _17
REMARK    8  A    between atoms: _20  and  _22
REMARK    9  A    between atoms: _22  and  _23
REMARK   10  A    between atoms: _22  and  _25
REMARK   11  A    between atoms: _25  and  _26
REMARK   12  A    between atoms: _31  and  _33
REMARK   13  A    between atoms: _33  and  _34
REMARK   14  A    between atoms: _33  and  _36
REMARK   15  A    between atoms: _36  and  _37
REMARK   16  A    between atoms: _40  and  _42
REMARK   17  A    between atoms: _42  and  _43
REMARK   18  A    between atoms: _42  and  _45
REMARK   19  A    between atoms: _45  and  _46
REMARK   20  A    between atoms: _49  and  _51
REMARK   21  A    between atoms: _51  and  _52
REMARK   22  A    between atoms: _51  and  _54
REMARK   23  A    between atoms: _54  and  _55
REMARK   24  A    between atoms: _60  and  _62
REMARK   25  A    between atoms: _62  and  _63
REMARK   26  A    between atoms: _62  and  _65
REMARK   27  A    between atoms: _65  and  _66
REMARK   28  A    between atoms: _71  and  _72
REMARK   29  A    between atoms: _74  and  _76
REMARK   30  A    between atoms: _76  and  _77
REMARK   31  A    between atoms: _80  and  _82
REMARK   32  A    between atoms: _82  and  _83
REMARK   33  A    between atoms: _82  and  _85
REMARK   34  A    between atoms: _85  and  _86
REMARK   35  A    between atoms: _86  and  _87
REMARK   36  A    between atoms: _87  and  _88
REMARK   37  A    between atoms: _88  and  _89
REMARK   38  A    between atoms: _93  and  _95
REMARK   39  A    between atoms: _95  and  _96
REMARK   40  A    between atoms: _95  and  _98
REMARK   41  A    between atoms: _98  and  _99
REMARK   42  A    between atoms: _102  and  _104
REMARK   43  A    between atoms: _104  and  _105
REMARK   44  A    between atoms: _104  and  _107
REMARK   45  A    between atoms: _107  and  _108
REMARK   46  A    between atoms: _110  and  _112
REMARK   47  A    between atoms: _112  and  _113
REMARK   48  A    between atoms: _112  and  _115
REMARK   49  A    between atoms: _115  and  _116
REMARK   50  A    between atoms: _116  and  _226
REMARK   51  A    between atoms: _117  and  _119
REMARK   52  A    between atoms: _119  and  _120
REMARK   53  A    between atoms: _119  and  _122
REMARK   54  A    between atoms: _122  and  _123
REMARK   55  A    between atoms: _123  and  _124
REMARK   56  A    between atoms: _129  and  _131
REMARK   57  A    between atoms: _131  and  _132
REMARK   58  A    between atoms: _134  and  _136
REMARK   59  A    between atoms: _136  and  _137
REMARK   60  A    between atoms: _136  and  _139
REMARK   61  A    between atoms: _139  and  _140
REMARK   62  A    between atoms: _143  and  _145
REMARK   63  A    between atoms: _145  and  _146
REMARK   64  A    between atoms: _145  and  _148
REMARK   65  A    between atoms: _148  and  _149
REMARK   66  A    between atoms: _151  and  _153
REMARK   67  A    between atoms: _153  and  _154
REMARK   68  A    between atoms: _156  and  _158
REMARK   69  A    between atoms: _158  and  _159
REMARK   70  A    between atoms: _161  and  _163
REMARK   71  A    between atoms: _163  and  _164
REMARK   72  A    between atoms: _163  and  _166
REMARK   73  A    between atoms: _166  and  _167
REMARK   74  A    between atoms: _170  and  _172
REMARK   75  A    between atoms: _172  and  _173
REMARK   76  A    between atoms: _172  and  _175
REMARK   77  A    between atoms: _178  and  _180
REMARK   78  A    between atoms: _180  and  _181
REMARK   79  A    between atoms: _180  and  _183
REMARK   80  A    between atoms: _183  and  _184
REMARK   81  A    between atoms: _186  and  _188
REMARK   82  A    between atoms: _188  and  _189
REMARK   83  A    between atoms: _188  and  _191
REMARK   84  A    between atoms: _191  and  _192
REMARK   85  A    between atoms: _202  and  _204
REMARK   86  A    between atoms: _204  and  _205
REMARK   87  A    between atoms: _207  and  _209
REMARK   88  A    between atoms: _209  and  _210
REMARK   89  A    between atoms: _209  and  _212
REMARK   90  A    between atoms: _212  and  _213
REMARK   91  A    between atoms: _215  and  _217
REMARK   92  A    between atoms: _217  and  _218
REMARK   93  A    between atoms: _220  and  _222
REMARK   94  A    between atoms: _222  and  _223
REMARK   95  A    between atoms: _222  and  _225
REMARK   96  A    between atoms: _225  and  _226
REMARK   97  A    between atoms: _227  and  _229
REMARK   98  A    between atoms: _229  and  _230
REMARK   99  A    between atoms: _233  and  _235
REMARK  100  A    between atoms: _235  and  _236
REMARK  101  A    between atoms: _235  and  _238
REMARK  102  A    between atoms: _238  and  _239
REMARK  103  A    between atoms: _239  and  _240
REMARK  104  A    between atoms: _245  and  _247
REMARK  105  A    between atoms: _247  and  _248
REMARK  106  A    between atoms: _247  and  _250
REMARK  107  A    between atoms: _250  and  _251
REMARK  108  A    between atoms: _251  and  _252
REMARK  109  A    between atoms: _252  and  _253
REMARK  110  A    between atoms: _253  and  _254
REMARK  111  A    between atoms: _259  and  _260
REMARK  112  A    between atoms: _265  and  _267
REMARK  113  A    between atoms: _267  and  _268
REMARK  114  A    between atoms: _270  and  _272
REMARK  115  A    between atoms: _272  and  _273
REMARK  116  A    between atoms: _272  and  _275
REMARK  117  A    between atoms: _278  and  _280
REMARK  118  A    between atoms: _280  and  _281
REMARK  119  A    between atoms: _280  and  _283
REMARK  120  A    between atoms: _283  and  _284
REMARK  121  A    between atoms: _289  and  _290
REMARK                            x       y       z     vdW  Elec       q    Type
REMARK                         _______ _______ _______ _____ _____    ______ ____
ROOT
ATOM      1  O   HOH     1      47.482  12.433  57.764  0.00  0.00    +0.000 OA
ENDROOT
TORSDOF 0
REMARK  Name = ../refined-set-2016/1c5p/1c5p_pocket.pdb
REMARK  121 active torsions:
REMARK  status: ('A' for Active; 'I' for Inactive)
REMARK    1  A    between atoms: _1  and  _5
REMARK    2  A    between atoms: _5  and  _6
REMARK    3  A    between atoms: _5  and  _8
REMARK    4  A    between atoms: _8  and  _9
REMARK    5  A    between atoms: _12  and  _14
REMARK    6  A    between atoms: _14  and  _15
REMARK    7  A    between atoms: _14  and  _17
REMARK    8  A    between atoms: _20  and  _22
REMARK    9  A    between atoms: _22  and  _23
REMARK   10  A    between atoms: _22  and  _25
REMARK   11  A    between atoms: _25  and  _26
REMARK   12  A    between atoms: _31  and  _33
REMARK   13  A    between atoms: _33  and  _34
REMARK   14  A    between atoms: _33  and  _36
REMARK   15  A    between atoms: _36  and  _37
REMARK   16  A    between atoms: _40  and  _42
REMARK   17  A    between atoms: _42  and  _43
REMARK   18  A    between atoms: _42  and  _45
REMARK   19  A    between atoms: _45  and  _46
REMARK   20  A    between atoms: _49  and  _51
REMARK   21  A    between atoms: _51  and  _52
REMARK   22  A    between atoms: _51  and  _54
REMARK   23  A    between atoms: _54  and  _55
REMARK   24  A    between atoms: _60  and  _62
REMARK   25  A    between atoms: _62  and  _63
REMARK   26  A    between atoms: _62  and  _65
REMARK   27  A    between atoms: _65  and  _66
REMARK   28  A    between atoms: _71  and  _72
REMARK   29  A    between atoms: _74  and  _76
REMARK   30  A    between atoms: _76  and  _77
REMARK   31  A    between atoms: _80  and  _82
REMARK   32  A    between atoms: _82  and  _83
REMARK   33  A    between atoms: _82  and  _85
REMARK   34  A    between atoms: _85  and  _86
REMARK   35  A    between atoms: _86  and  _87
REMARK   36  A    between atoms: _87  and  _88
REMARK   37  A    between atoms: _88  and  _89
REMARK   38  A    between atoms: _93  and  _95
REMARK   39  A    between atoms: _95  and  _96
REMARK   40  A    between atoms: _95  and  _98
REMARK   41  A    between atoms: _98  and  _99
REMARK   42  A    between atoms: _102  and  _104
REMARK   43  A    between atoms: _104  and  _105
REMARK   44  A    between atoms: _104  and  _107
REMARK   45  A    between atoms: _107  and  _108
REMARK   46  A    between atoms: _110  and  _112
REMARK   47  A    between atoms: _112  and  _113
REMARK   48  A    between atoms: _112  and  _115
REMARK   49  A    between atoms: _115  and  _116
REMARK   50  A    between atoms: _116  and  _226
REMARK   51  A    between atoms: _117  and  _119
REMARK   52  A    between atoms: _119  and  _120
REMARK   53  A    between atoms: _119  and  _122
REMARK   54  A    between atoms: _122  and  _123
REMARK   55  A    between atoms: _123  and  _124
REMARK   56  A    between atoms: _129  and  _131
REMARK   57  A    between atoms: _131  and  _132
REMARK   58  A    between atoms: _134  and  _136
REMARK   59  A    between atoms: _136  and  _137
REMARK   60  A    between atoms: _136  and  _139
REMARK   61  A    between atoms: _139  and  _140
REMARK   62  A    between atoms: _143  and  _145
REMARK   63  A    between atoms: _145  and  _146
REMARK   64  A    between atoms: _145  and  _148
REMARK   65  A    between atoms: _148  and  _149
REMARK   66  A    between atoms: _151  and  _153
REMARK   67  A    between atoms: _153  and  _154
REMARK   68  A    between atoms: _156  and  _158
REMARK   69  A    between atoms: _158  and  _159
REMARK   70  A    between atoms: _161  and  _163
REMARK   71  A    between atoms: _163  and  _164
REMARK   72  A    between atoms: _163  and  _166
REMARK   73  A    between atoms: _166  and  _167
REMARK   74  A    between atoms: _170  and  _172
REMARK   75  A    between atoms: _172  and  _173
REMARK   76  A    between atoms: _172  and  _175
REMARK   77  A    between atoms: _178  and  _180
REMARK   78  A    between atoms: _180  and  _181
REMARK   79  A    between atoms: _180  and  _183
REMARK   80  A    between atoms: _183  and  _184
REMARK   81  A    between atoms: _186  and  _188
REMARK   82  A    between atoms: _188  and  _189
REMARK   83  A    between atoms: _188  and  _191
REMARK   84  A    between atoms: _191  and  _192
REMARK   85  A    between atoms: _202  and  _204
REMARK   86  A    between atoms: _204  and  _205
REMARK   87  A    between atoms: _207  and  _209
REMARK   88  A    between atoms: _209  and  _210
REMARK   89  A    between atoms: _209  and  _212
REMARK   90  A    between atoms: _212  and  _213
REMARK   91  A    between atoms: _215  and  _217
REMARK   92  A    between atoms: _217  and  _218
REMARK   93  A    between atoms: _220  and  _222
REMARK   94  A    between atoms: _222  and  _223
REMARK   95  A    between atoms: _222  and  _225
REMARK   96  A    between atoms: _225  and  _226
REMARK   97  A    between atoms: _227  and  _229
REMARK   98  A    between atoms: _229  and  _230
REMARK   99  A    between atoms: _233  and  _235
REMARK  100  A    between atoms: _235  and  _236
REMARK  101  A    between atoms: _235  and  _238
REMARK  102  A    between atoms: _238  and  _239
REMARK  103  A    between atoms: _239  and  _240
REMARK  104  A    between atoms: _245  and  _247
REMARK  105  A    between atoms: _247  and  _248
REMARK  106  A    between atoms: _247  and  _250
REMARK  107  A    between atoms: _250  and  _251
REMARK  108  A    between atoms: _251  and  _252
REMARK  109  A    between atoms: _252  and  _253
REMARK  110  A    between atoms: _253  and  _254
REMARK  111  A    between atoms: _259  and  _260
REMARK  112  A    between atoms: _265  and  _267
REMARK  113  A    between atoms: _267  and  _268
REMARK  114  A    between atoms: _270  and  _272
REMARK  115  A    between atoms: _272  and  _273
REMARK  116  A    between atoms: _272  and  _275
REMARK  117  A    between atoms: _278  and  _280
REMARK  118  A    between atoms: _280  and  _281
REMARK  119  A    between atoms: _280  and  _283
REMARK  120  A    between atoms: _283  and  _284
REMARK  121  A    between atoms: _289  and  _290
REMARK                            x       y       z     vdW  Elec       q    Type
REMARK                         _______ _______ _______ _____ _____    ______ ____
ROOT
ATOM      1  O   HOH     1      52.175  22.315  57.673  0.00  0.00    +0.000 OA
ENDROOT
TORSDOF 0
REMARK  Name = ../refined-set-2016/1c5p/1c5p_pocket.pdb
REMARK  121 active torsions:
REMARK  status: ('A' for Active; 'I' for Inactive)
REMARK    1  A    between atoms: _1  and  _5
REMARK    2  A    between atoms: _5  and  _6
REMARK    3  A    between atoms: _5  and  _8
REMARK    4  A    between atoms: _8  and  _9
REMARK    5  A    between atoms: _12  and  _14
REMARK    6  A    between atoms: _14  and  _15
REMARK    7  A    between atoms: _14  and  _17
REMARK    8  A    between atoms: _20  and  _22
REMARK    9  A    between atoms: _22  and  _23
REMARK   10  A    between atoms: _22  and  _25
REMARK   11  A    between atoms: _25  and  _26
REMARK   12  A    between atoms: _31  and  _33
REMARK   13  A    between atoms: _33  and  _34
REMARK   14  A    between atoms: _33  and  _36
REMARK   15  A    between atoms: _36  and  _37
REMARK   16  A    between atoms: _40  and  _42
REMARK   17  A    between atoms: _42  and  _43
REMARK   18  A    between atoms: _42  and  _45
REMARK   19  A    between atoms: _45  and  _46
REMARK   20  A    between atoms: _49  and  _51
REMARK   21  A    between atoms: _51  and  _52
REMARK   22  A    between atoms: _51  and  _54
REMARK   23  A    between atoms: _54  and  _55
REMARK   24  A    between atoms: _60  and  _62
REMARK   25  A    between atoms: _62  and  _63
REMARK   26  A    between atoms: _62  and  _65
REMARK   27  A    between atoms: _65  and  _66
REMARK   28  A    between atoms: _71  and  _72
REMARK   29  A    between atoms: _74  and  _76
REMARK   30  A    between atoms: _76  and  _77
REMARK   31  A    between atoms: _80  and  _82
REMARK   32  A    between atoms: _82  and  _83
REMARK   33  A    between atoms: _82  and  _85
REMARK   34  A    between atoms: _85  and  _86
REMARK   35  A    between atoms: _86  and  _87
REMARK   36  A    between atoms: _87  and  _88
REMARK   37  A    between atoms: _88  and  _89
REMARK   38  A    between atoms: _93  and  _95
REMARK   39  A    between atoms: _95  and  _96
REMARK   40  A    between atoms: _95  and  _98
REMARK   41  A    between atoms: _98  and  _99
REMARK   42  A    between atoms: _102  and  _104
REMARK   43  A    between atoms: _104  and  _105
REMARK   44  A    between atoms: _104  and  _107
REMARK   45  A    between atoms: _107  and  _108
REMARK   46  A    between atoms: _110  and  _112
REMARK   47  A    between atoms: _112  and  _113
REMARK   48  A    between atoms: _112  and  _115
REMARK   49  A    between atoms: _115  and  _116
REMARK   50  A    between atoms: _116  and  _226
REMARK   51  A    between atoms: _117  and  _119
REMARK   52  A    between atoms: _119  and  _120
REMARK   53  A    between atoms: _119  and  _122
REMARK   54  A    between atoms: _122  and  _123
REMARK   55  A    between atoms: _123  and  _124
REMARK   56  A    between atoms: _129  and  _131
REMARK   57  A    between atoms: _131  and  _132
REMARK   58  A    between atoms: _134  and  _136
REMARK   59  A    between atoms: _136  and  _137
REMARK   60  A    between atoms: _136  and  _139
REMARK   61  A    between atoms: _139  and  _140
REMARK   62  A    between atoms: _143  and  _145
REMARK   63  A    between atoms: _145  and  _146
REMARK   64  A    between atoms: _145  and  _148
REMARK   65  A    between atoms: _148  and  _149
REMARK   66  A    between atoms: _151  and  _153
REMARK   67  A    between atoms: _153  and  _154
REMARK   68  A    between atoms: _156  and  _158
REMARK   69  A    between atoms: _158  and  _159
REMARK   70  A    between atoms: _161  and  _163
REMARK   71  A    between atoms: _163  and  _164
REMARK   72  A    between atoms: _163  and  _166
REMARK   73  A    between atoms: _166  and  _167
REMARK   74  A    between atoms: _170  and  _172
REMARK   75  A    between atoms: _172  and  _173
REMARK   76  A    between atoms: _172  and  _175
REMARK   77  A    between atoms: _178  and  _180
REMARK   78  A    between atoms: _180  and  _181
REMARK   79  A    between atoms: _180  and  _183
REMARK   80  A    between atoms: _183  and  _184
REMARK   81  A    between atoms: _186  and  _188
REMARK   82  A    between atoms: _188  and  _189
REMARK   83  A    between atoms: _188  and  _191
REMARK   84  A    between atoms: _191  and  _192
REMARK   85  A    between atoms: _202  and  _204
REMARK   86  A    between atoms: _204  and  _205
REMARK   87  A    between atoms: _207  and  _209
REMARK   88  A    between atoms: _209  and  _210
REMARK   89  A    between atoms: _209  and  _212
REMARK   90  A    between atoms: _212  and  _213
REMARK   91  A    between atoms: _215  and  _217
REMARK   92  A    between atoms: _217  and  _218
REMARK   93  A    between atoms: _220  and  _222
REMARK   94  A    between atoms: _222  and  _223
REMARK   95  A    between atoms: _222  and  _225
REMARK   96  A    between atoms: _225  and  _226
REMARK   97  A    between atoms: _227  and  _229
REMARK   98  A    between atoms: _229  and  _230
REMARK   99  A    between atoms: _233  and  _235
REMARK  100  A    between atoms: _235  and  _236
REMARK  101  A    between atoms: _235  and  _238
REMARK  102  A    between atoms: _238  and  _239
REMARK  103  A    between atoms: _239  and  _240
REMARK  104  A    between atoms: _245  and  _247
REMARK  105  A    between atoms: _247  and  _248
REMARK  106  A    between atoms: _247  and  _250
REMARK  107  A    between atoms: _250  and  _251
REMARK  108  A    between atoms: _251  and  _252
REMARK  109  A    between atoms: _252  and  _253
REMARK  110  A    between atoms: _253  and  _254
REMARK  111  A    between atoms: _259  and  _260
REMARK  112  A    between atoms: _265  and  _267
REMARK  113  A    between atoms: _267  and  _268
REMARK  114  A    between atoms: _270  and  _272
REMARK  115  A    between atoms: _272  and  _273
REMARK  116  A    between atoms: _272  and  _275
REMARK  117  A    between atoms: _278  and  _280
REMARK  118  A    between atoms: _280  and  _281
REMARK  119  A    between atoms: _280  and  _283
REMARK  120  A    between atoms: _283  and  _284
REMARK  121  A    between atoms: _289  and  _290
REMARK                            x       y       z     vdW  Elec       q    Type
REMARK                         _______ _______ _______ _____ _____    ______ ____
ROOT
ATOM      1  O   HOH     1      42.756  16.422  52.398  0.00  0.00    +0.000 OA
ENDROOT
TORSDOF 0
REMARK  Name = ../refined-set-2016/1c5p/1c5p_pocket.pdb
REMARK  121 active torsions:
REMARK  status: ('A' for Active; 'I' for Inactive)
REMARK    1  A    between atoms: _1  and  _5
REMARK    2  A    between atoms: _5  and  _6
REMARK    3  A    between atoms: _5  and  _8
REMARK    4  A    between atoms: _8  and  _9
REMARK    5  A    between atoms: _12  and  _14
REMARK    6  A    between atoms: _14  and  _15
REMARK    7  A    between atoms: _14  and  _17
REMARK    8  A    between atoms: _20  and  _22
REMARK    9  A    between atoms: _22  and  _23
REMARK   10  A    between atoms: _22  and  _25
REMARK   11  A    between atoms: _25  and  _26
REMARK   12  A    between atoms: _31  and  _33
REMARK   13  A    between atoms: _33  and  _34
REMARK   14  A    between atoms: _33  and  _36
REMARK   15  A    between atoms: _36  and  _37
REMARK   16  A    between atoms: _40  and  _42
REMARK   17  A    between atoms: _42  and  _43
REMARK   18  A    between atoms: _42  and  _45
REMARK   19  A    between atoms: _45  and  _46
REMARK   20  A    between atoms: _49  and  _51
REMARK   21  A    between atoms: _51  and  _52
REMARK   22  A    between atoms: _51  and  _54
REMARK   23  A    between atoms: _54  and  _55
REMARK   24  A    between atoms: _60  and  _62
REMARK   25  A    between atoms: _62  and  _63
REMARK   26  A    between atoms: _62  and  _65
REMARK   27  A    between atoms: _65  and  _66
REMARK   28  A    between atoms: _71  and  _72
REMARK   29  A    between atoms: _74  and  _76
REMARK   30  A    between atoms: _76  and  _77
REMARK   31  A    between atoms: _80  and  _82
REMARK   32  A    between atoms: _82  and  _83
REMARK   33  A    between atoms: _82  and  _85
REMARK   34  A    between atoms: _85  and  _86
REMARK   35  A    between atoms: _86  and  _87
REMARK   36  A    between atoms: _87  and  _88
REMARK   37  A    between atoms: _88  and  _89
REMARK   38  A    between atoms: _93  and  _95
REMARK   39  A    between atoms: _95  and  _96
REMARK   40  A    between atoms: _95  and  _98
REMARK   41  A    between atoms: _98  and  _99
REMARK   42  A    between atoms: _102  and  _104
REMARK   43  A    between atoms: _104  and  _105
REMARK   44  A    between atoms: _104  and  _107
REMARK   45  A    between atoms: _107  and  _108
REMARK   46  A    between atoms: _110  and  _112
REMARK   47  A    between atoms: _112  and  _113
REMARK   48  A    between atoms: _112  and  _115
REMARK   49  A    between atoms: _115  and  _116
REMARK   50  A    between atoms: _116  and  _226
REMARK   51  A    between atoms: _117  and  _119
REMARK   52  A    between atoms: _119  and  _120
REMARK   53  A    between atoms: _119  and  _122
REMARK   54  A    between atoms: _122  and  _123
REMARK   55  A    between atoms: _123  and  _124
REMARK   56  A    between atoms: _129  and  _131
REMARK   57  A    between atoms: _131  and  _132
REMARK   58  A    between atoms: _134  and  _136
REMARK   59  A    between atoms: _136  and  _137
REMARK   60  A    between atoms: _136  and  _139
REMARK   61  A    between atoms: _139  and  _140
REMARK   62  A    between atoms: _143  and  _145
REMARK   63  A    between atoms: _145  and  _146
REMARK   64  A    between atoms: _145  and  _148
REMARK   65  A    between atoms: _148  and  _149
REMARK   66  A    between atoms: _151  and  _153
REMARK   67  A    between atoms: _153  and  _154
REMARK   68  A    between atoms: _156  and  _158
REMARK   69  A    between atoms: _158  and  _159
REMARK   70  A    between atoms: _161  and  _163
REMARK   71  A    between atoms: _163  and  _164
REMARK   72  A    between atoms: _163  and  _166
REMARK   73  A    between atoms: _166  and  _167
REMARK   74  A    between atoms: _170  and  _172
REMARK   75  A    between atoms: _172  and  _173
REMARK   76  A    between atoms: _172  and  _175
REMARK   77  A    between atoms: _178  and  _180
REMARK   78  A    between atoms: _180  and  _181
REMARK   79  A    between atoms: _180  and  _183
REMARK   80  A    between atoms: _183  and  _184
REMARK   81  A    between atoms: _186  and  _188
REMARK   82  A    between atoms: _188  and  _189
REMARK   83  A    between atoms: _188  and  _191
REMARK   84  A    between atoms: _191  and  _192
REMARK   85  A    between atoms: _202  and  _204
REMARK   86  A    between atoms: _204  and  _205
REMARK   87  A    between atoms: _207  and  _209
REMARK   88  A    between atoms: _209  and  _210
REMARK   89  A    between atoms: _209  and  _212
REMARK   90  A    between atoms: _212  and  _213
REMARK   91  A    between atoms: _215  and  _217
REMARK   92  A    between atoms: _217  and  _218
REMARK   93  A    between atoms: _220  and  _222
REMARK   94  A    between atoms: _222  and  _223
REMARK   95  A    between atoms: _222  and  _225
REMARK   96  A    between atoms: _225  and  _226
REMARK   97  A    between atoms: _227  and  _229
REMARK   98  A    between atoms: _229  and  _230
REMARK   99  A    between atoms: _233  and  _235
REMARK  100  A    between atoms: _235  and  _236
REMARK  101  A    between atoms: _235  and  _238
REMARK  102  A    between atoms: _238  and  _239
REMARK  103  A    between atoms: _239  and  _240
REMARK  104  A    between atoms: _245  and  _247
REMARK  105  A    between atoms: _247  and  _248
REMARK  106  A    between atoms: _247  and  _250
REMARK  107  A    between atoms: _250  and  _251
REMARK  108  A    between atoms: _251  and  _252
REMARK  109  A    between atoms: _252  and  _253
REMARK  110  A    between atoms: _253  and  _254
REMARK  111  A    between atoms: _259  and  _260
REMARK  112  A    between atoms: _265  and  _267
REMARK  113  A    between atoms: _267  and  _268
REMARK  114  A    between atoms: _270  and  _272
REMARK  115  A    between atoms: _272  and  _273
REMARK  116  A    between atoms: _272  and  _275
REMARK  117  A    between atoms: _278  and  _280
REMARK  118  A    between atoms: _280  and  _281
REMARK  119  A    between atoms: _280  and  _283
REMARK  120  A    between atoms: _283  and  _284
REMARK  121  A    between atoms: _289  and  _290
REMARK                            x       y       z     vdW  Elec       q    Type
REMARK                         _______ _______ _______ _____ _____    ______ ____
ROOT
ATOM      1  O   HOH     1      41.592  23.384  50.835  0.00  0.00    +0.000 OA
ENDROOT
TORSDOF 0
REMARK  Name = ../refined-set-2016/1c5p/1c5p_pocket.pdb
REMARK  121 active torsions:
REMARK  status: ('A' for Active; 'I' for Inactive)
REMARK    1  A    between atoms: _1  and  _5
REMARK    2  A    between atoms: _5  and  _6
REMARK    3  A    between atoms: _5  and  _8
REMARK    4  A    between atoms: _8  and  _9
REMARK    5  A    between atoms: _12  and  _14
REMARK    6  A    between atoms: _14  and  _15
REMARK    7  A    between atoms: _14  and  _17
REMARK    8  A    between atoms: _20  and  _22
REMARK    9  A    between atoms: _22  and  _23
REMARK   10  A    between atoms: _22  and  _25
REMARK   11  A    between atoms: _25  and  _26
REMARK   12  A    between atoms: _31  and  _33
REMARK   13  A    between atoms: _33  and  _34
REMARK   14  A    between atoms: _33  and  _36
REMARK   15  A    between atoms: _36  and  _37
REMARK   16  A    between atoms: _40  and  _42
REMARK   17  A    between atoms: _42  and  _43
REMARK   18  A    between atoms: _42  and  _45
REMARK   19  A    between atoms: _45  and  _46
REMARK   20  A    between atoms: _49  and  _51
REMARK   21  A    between atoms: _51  and  _52
REMARK   22  A    between atoms: _51  and  _54
REMARK   23  A    between atoms: _54  and  _55
REMARK   24  A    between atoms: _60  and  _62
REMARK   25  A    between atoms: _62  and  _63
REMARK   26  A    between atoms: _62  and  _65
REMARK   27  A    between atoms: _65  and  _66
REMARK   28  A    between atoms: _71  and  _72
REMARK   29  A    between atoms: _74  and  _76
REMARK   30  A    between atoms: _76  and  _77
REMARK   31  A    between atoms: _80  and  _82
REMARK   32  A    between atoms: _82  and  _83
REMARK   33  A    between atoms: _82  and  _85
REMARK   34  A    between atoms: _85  and  _86
REMARK   35  A    between atoms: _86  and  _87
REMARK   36  A    between atoms: _87  and  _88
REMARK   37  A    between atoms: _88  and  _89
REMARK   38  A    between atoms: _93  and  _95
REMARK   39  A    between atoms: _95  and  _96
REMARK   40  A    between atoms: _95  and  _98
REMARK   41  A    between atoms: _98  and  _99
REMARK   42  A    between atoms: _102  and  _104
REMARK   43  A    between atoms: _104  and  _105
REMARK   44  A    between atoms: _104  and  _107
REMARK   45  A    between atoms: _107  and  _108
REMARK   46  A    between atoms: _110  and  _112
REMARK   47  A    between atoms: _112  and  _113
REMARK   48  A    between atoms: _112  and  _115
REMARK   49  A    between atoms: _115  and  _116
REMARK   50  A    between atoms: _116  and  _226
REMARK   51  A    between atoms: _117  and  _119
REMARK   52  A    between atoms: _119  and  _120
REMARK   53  A    between atoms: _119  and  _122
REMARK   54  A    between atoms: _122  and  _123
REMARK   55  A    between atoms: _123  and  _124
REMARK   56  A    between atoms: _129  and  _131
REMARK   57  A    between atoms: _131  and  _132
REMARK   58  A    between atoms: _134  and  _136
REMARK   59  A    between atoms: _136  and  _137
REMARK   60  A    between atoms: _136  and  _139
REMARK   61  A    between atoms: _139  and  _140
REMARK   62  A    between atoms: _143  and  _145
REMARK   63  A    between atoms: _145  and  _146
REMARK   64  A    between atoms: _145  and  _148
REMARK   65  A    between atoms: _148  and  _149
REMARK   66  A    between atoms: _151  and  _153
REMARK   67  A    between atoms: _153  and  _154
REMARK   68  A    between atoms: _156  and  _158
REMARK   69  A    between atoms: _158  and  _159
REMARK   70  A    between atoms: _161  and  _163
REMARK   71  A    between atoms: _163  and  _164
REMARK   72  A    between atoms: _163  and  _166
REMARK   73  A    between atoms: _166  and  _167
REMARK   74  A    between atoms: _170  and  _172
REMARK   75  A    between atoms: _172  and  _173
REMARK   76  A    between atoms: _172  and  _175
REMARK   77  A    between atoms: _178  and  _180
REMARK   78  A    between atoms: _180  and  _181
REMARK   79  A    between atoms: _180  and  _183
REMARK   80  A    between atoms: _183  and  _184
REMARK   81  A    between atoms: _186  and  _188
REMARK   82  A    between atoms: _188  and  _189
REMARK   83  A    between atoms: _188  and  _191
REMARK   84  A    between atoms: _191  and  _192
REMARK   85  A    between atoms: _202  and  _204
REMARK   86  A    between atoms: _204  and  _205
REMARK   87  A    between atoms: _207  and  _209
REMARK   88  A    between atoms: _209  and  _210
REMARK   89  A    between atoms: _209  and  _212
REMARK   90  A    between atoms: _212  and  _213
REMARK   91  A    between atoms: _215  and  _217
REMARK   92  A    between atoms: _217  and  _218
REMARK   93  A    between atoms: _220  and  _222
REMARK   94  A    between atoms: _222  and  _223
REMARK   95  A    between atoms: _222  and  _225
REMARK   96  A    between atoms: _225  and  _226
REMARK   97  A    between atoms: _227  and  _229
REMARK   98  A    between atoms: _229  and  _230
REMARK   99  A    between atoms: _233  and  _235
REMARK  100  A    between atoms: _235  and  _236
REMARK  101  A    between atoms: _235  and  _238
REMARK  102  A    between atoms: _238  and  _239
REMARK  103  A    between atoms: _239  and  _240
REMARK  104  A    between atoms: _245  and  _247
REMARK  105  A    between atoms: _247  and  _248
REMARK  106  A    between atoms: _247  and  _250
REMARK  107  A    between atoms: _250  and  _251
REMARK  108  A    between atoms: _251  and  _252
REMARK  109  A    between atoms: _252  and  _253
REMARK  110  A    between atoms: _253  and  _254
REMARK  111  A    between atoms: _259  and  _260
REMARK  112  A    between atoms: _265  and  _267
REMARK  113  A    between atoms: _267  and  _268
REMARK  114  A    between atoms: _270  and  _272
REMARK  115  A    between atoms: _272  and  _273
REMARK  116  A    between atoms: _272  and  _275
REMARK  117  A    between atoms: _278  and  _280
REMARK  118  A    between atoms: _280  and  _281
REMARK  119  A    between atoms: _280  and  _283
REMARK  120  A    between atoms: _283  and  _284
REMARK  121  A    between atoms: _289  and  _290
REMARK                            x       y       z     vdW  Elec       q    Type
REMARK                         _______ _______ _______ _____ _____    ______ ____
ROOT
ATOM      1  O   HOH     1      48.763  26.002  57.873  0.00  0.00    +0.000 OA
ENDROOT
TORSDOF 0
REMARK  Name = ../refined-set-2016/1c5p/1c5p_pocket.pdb
REMARK  121 active torsions:
REMARK  status: ('A' for Active; 'I' for Inactive)
REMARK    1  A    between atoms: _1  and  _5
REMARK    2  A    between atoms: _5  and  _6
REMARK    3  A    between atoms: _5  and  _8
REMARK    4  A    between atoms: _8  and  _9
REMARK    5  A    between atoms: _12  and  _14
REMARK    6  A    between atoms: _14  and  _15
REMARK    7  A    between atoms: _14  and  _17
REMARK    8  A    between atoms: _20  and  _22
REMARK    9  A    between atoms: _22  and  _23
REMARK   10  A    between atoms: _22  and  _25
REMARK   11  A    between atoms: _25  and  _26
REMARK   12  A    between atoms: _31  and  _33
REMARK   13  A    between atoms: _33  and  _34
REMARK   14  A    between atoms: _33  and  _36
REMARK   15  A    between atoms: _36  and  _37
REMARK   16  A    between atoms: _40  and  _42
REMARK   17  A    between atoms: _42  and  _43
REMARK   18  A    between atoms: _42  and  _45
REMARK   19  A    between atoms: _45  and  _46
REMARK   20  A    between atoms: _49  and  _51
REMARK   21  A    between atoms: _51  and  _52
REMARK   22  A    between atoms: _51  and  _54
REMARK   23  A    between atoms: _54  and  _55
REMARK   24  A    between atoms: _60  and  _62
REMARK   25  A    between atoms: _62  and  _63
REMARK   26  A    between atoms: _62  and  _65
REMARK   27  A    between atoms: _65  and  _66
REMARK   28  A    between atoms: _71  and  _72
REMARK   29  A    between atoms: _74  and  _76
REMARK   30  A    between atoms: _76  and  _77
REMARK   31  A    between atoms: _80  and  _82
REMARK   32  A    between atoms: _82  and  _83
REMARK   33  A    between atoms: _82  and  _85
REMARK   34  A    between atoms: _85  and  _86
REMARK   35  A    between atoms: _86  and  _87
REMARK   36  A    between atoms: _87  and  _88
REMARK   37  A    between atoms: _88  and  _89
REMARK   38  A    between atoms: _93  and  _95
REMARK   39  A    between atoms: _95  and  _96
REMARK   40  A    between atoms: _95  and  _98
REMARK   41  A    between atoms: _98  and  _99
REMARK   42  A    between atoms: _102  and  _104
REMARK   43  A    between atoms: _104  and  _105
REMARK   44  A    between atoms: _104  and  _107
REMARK   45  A    between atoms: _107  and  _108
REMARK   46  A    between atoms: _110  and  _112
REMARK   47  A    between atoms: _112  and  _113
REMARK   48  A    between atoms: _112  and  _115
REMARK   49  A    between atoms: _115  and  _116
REMARK   50  A    between atoms: _116  and  _226
REMARK   51  A    between atoms: _117  and  _119
REMARK   52  A    between atoms: _119  and  _120
REMARK   53  A    between atoms: _119  and  _122
REMARK   54  A    between atoms: _122  and  _123
REMARK   55  A    between atoms: _123  and  _124
REMARK   56  A    between atoms: _129  and  _131
REMARK   57  A    between atoms: _131  and  _132
REMARK   58  A    between atoms: _134  and  _136
REMARK   59  A    between atoms: _136  and  _137
REMARK   60  A    between atoms: _136  and  _139
REMARK   61  A    between atoms: _139  and  _140
REMARK   62  A    between atoms: _143  and  _145
REMARK   63  A    between atoms: _145  and  _146
REMARK   64  A    between atoms: _145  and  _148
REMARK   65  A    between atoms: _148  and  _149
REMARK   66  A    between atoms: _151  and  _153
REMARK   67  A    between atoms: _153  and  _154
REMARK   68  A    between atoms: _156  and  _158
REMARK   69  A    between atoms: _158  and  _159
REMARK   70  A    between atoms: _161  and  _163
REMARK   71  A    between atoms: _163  and  _164
REMARK   72  A    between atoms: _163  and  _166
REMARK   73  A    between atoms: _166  and  _167
REMARK   74  A    between atoms: _170  and  _172
REMARK   75  A    between atoms: _172  and  _173
REMARK   76  A    between atoms: _172  and  _175
REMARK   77  A    between atoms: _178  and  _180
REMARK   78  A    between atoms: _180  and  _181
REMARK   79  A    between atoms: _180  and  _183
REMARK   80  A    between atoms: _183  and  _184
REMARK   81  A    between atoms: _186  and  _188
REMARK   82  A    between atoms: _188  and  _189
REMARK   83  A    between atoms: _188  and  _191
REMARK   84  A    between atoms: _191  and  _192
REMARK   85  A    between atoms: _202  and  _204
REMARK   86  A    between atoms: _204  and  _205
REMARK   87  A    between atoms: _207  and  _209
REMARK   88  A    between atoms: _209  and  _210
REMARK   89  A    between atoms: _209  and  _212
REMARK   90  A    between atoms: _212  and  _213
REMARK   91  A    between atoms: _215  and  _217
REMARK   92  A    between atoms: _217  and  _218
REMARK   93  A    between atoms: _220  and  _222
REMARK   94  A    between atoms: _222  and  _223
REMARK   95  A    between atoms: _222  and  _225
REMARK   96  A    between atoms: _225  and  _226
REMARK   97  A    between atoms: _227  and  _229
REMARK   98  A    between atoms: _229  and  _230
REMARK   99  A    between atoms: _233  and  _235
REMARK  100  A    between atoms: _235  and  _236
REMARK  101  A    between atoms: _235  and  _238
REMARK  102  A    between atoms: _238  and  _239
REMARK  103  A    between atoms: _239  and  _240
REMARK  104  A    between atoms: _245  and  _247
REMARK  105  A    between atoms: _247  and  _248
REMARK  106  A    between atoms: _247  and  _250
REMARK  107  A    between atoms: _250  and  _251
REMARK  108  A    between atoms: _251  and  _252
REMARK  109  A    between atoms: _252  and  _253
REMARK  110  A    between atoms: _253  and  _254
REMARK  111  A    between atoms: _259  and  _260
REMARK  112  A    between atoms: _265  and  _267
REMARK  113  A    between atoms: _267  and  _268
REMARK  114  A    between atoms: _270  and  _272
REMARK  115  A    between atoms: _272  and  _273
REMARK  116  A    between atoms: _272  and  _275
REMARK  117  A    between atoms: _278  and  _280
REMARK  118  A    between atoms: _280  and  _281
REMARK  119  A    between atoms: _280  and  _283
REMARK  120  A    between atoms: _283  and  _284
REMARK  121  A    between atoms: _289  and  _290
REMARK                            x       y       z     vdW  Elec       q    Type
REMARK                         _______ _______ _______ _____ _____    ______ ____
ROOT
ATOM      1  O   HOH     1      45.417  18.041  57.577  0.00  0.00    +0.000 OA
ENDROOT
TORSDOF 0
REMARK  Name = ../refined-set-2016/1c5p/1c5p_pocket.pdb
REMARK  121 active torsions:
REMARK  status: ('A' for Active; 'I' for Inactive)
REMARK    1  A    between atoms: _1  and  _5
REMARK    2  A    between atoms: _5  and  _6
REMARK    3  A    between atoms: _5  and  _8
REMARK    4  A    between atoms: _8  and  _9
REMARK    5  A    between atoms: _12  and  _14
REMARK    6  A    between atoms: _14  and  _15
REMARK    7  A    between atoms: _14  and  _17
REMARK    8  A    between atoms: _20  and  _22
REMARK    9  A    between atoms: _22  and  _23
REMARK   10  A    between atoms: _22  and  _25
REMARK   11  A    between atoms: _25  and  _26
REMARK   12  A    between atoms: _31  and  _33
REMARK   13  A    between atoms: _33  and  _34
REMARK   14  A    between atoms: _33  and  _36
REMARK   15  A    between atoms: _36  and  _37
REMARK   16  A    between atoms: _40  and  _42
REMARK   17  A    between atoms: _42  and  _43
REMARK   18  A    between atoms: _42  and  _45
REMARK   19  A    between atoms: _45  and  _46
REMARK   20  A    between atoms: _49  and  _51
REMARK   21  A    between atoms: _51  and  _52
REMARK   22  A    between atoms: _51  and  _54
REMARK   23  A    between atoms: _54  and  _55
REMARK   24  A    between atoms: _60  and  _62
REMARK   25  A    between atoms: _62  and  _63
REMARK   26  A    between atoms: _62  and  _65
REMARK   27  A    between atoms: _65  and  _66
REMARK   28  A    between atoms: _71  and  _72
REMARK   29  A    between atoms: _74  and  _76
REMARK   30  A    between atoms: _76  and  _77
REMARK   31  A    between atoms: _80  and  _82
REMARK   32  A    between atoms: _82  and  _83
REMARK   33  A    between atoms: _82  and  _85
REMARK   34  A    between atoms: _85  and  _86
REMARK   35  A    between atoms: _86  and  _87
REMARK   36  A    between atoms: _87  and  _88
REMARK   37  A    between atoms: _88  and  _89
REMARK   38  A    between atoms: _93  and  _95
REMARK   39  A    between atoms: _95  and  _96
REMARK   40  A    between atoms: _95  and  _98
REMARK   41  A    between atoms: _98  and  _99
REMARK   42  A    between atoms: _102  and  _104
REMARK   43  A    between atoms: _104  and  _105
REMARK   44  A    between atoms: _104  and  _107
REMARK   45  A    between atoms: _107  and  _108
REMARK   46  A    between atoms: _110  and  _112
REMARK   47  A    between atoms: _112  and  _113
REMARK   48  A    between atoms: _112  and  _115
REMARK   49  A    between atoms: _115  and  _116
REMARK   50  A    between atoms: _116  and  _226
REMARK   51  A    between atoms: _117  and  _119
REMARK   52  A    between atoms: _119  and  _120
REMARK   53  A    between atoms: _119  and  _122
REMARK   54  A    between atoms: _122  and  _123
REMARK   55  A    between atoms: _123  and  _124
REMARK   56  A    between atoms: _129  and  _131
REMARK   57  A    between atoms: _131  and  _132
REMARK   58  A    between atoms: _134  and  _136
REMARK   59  A    between atoms: _136  and  _137
REMARK   60  A    between atoms: _136  and  _139
REMARK   61  A    between atoms: _139  and  _140
REMARK   62  A    between atoms: _143  and  _145
REMARK   63  A    between atoms: _145  and  _146
REMARK   64  A    between atoms: _145  and  _148
REMARK   65  A    between atoms: _148  and  _149
REMARK   66  A    between atoms: _151  and  _153
REMARK   67  A    between atoms: _153  and  _154
REMARK   68  A    between atoms: _156  and  _158
REMARK   69  A    between atoms: _158  and  _159
REMARK   70  A    between atoms: _161  and  _163
REMARK   71  A    between atoms: _163  and  _164
REMARK   72  A    between atoms: _163  and  _166
REMARK   73  A    between atoms: _166  and  _167
REMARK   74  A    between atoms: _170  and  _172
REMARK   75  A    between atoms: _172  and  _173
REMARK   76  A    between atoms: _172  and  _175
REMARK   77  A    between atoms: _178  and  _180
REMARK   78  A    between atoms: _180  and  _181
REMARK   79  A    between atoms: _180  and  _183
REMARK   80  A    between atoms: _183  and  _184
REMARK   81  A    between atoms: _186  and  _188
REMARK   82  A    between atoms: _188  and  _189
REMARK   83  A    between atoms: _188  and  _191
REMARK   84  A    between atoms: _191  and  _192
REMARK   85  A    between atoms: _202  and  _204
REMARK   86  A    between atoms: _204  and  _205
REMARK   87  A    between atoms: _207  and  _209
REMARK   88  A    between atoms: _209  and  _210
REMARK   89  A    between atoms: _209  and  _212
REMARK   90  A    between atoms: _212  and  _213
REMARK   91  A    between atoms: _215  and  _217
REMARK   92  A    between atoms: _217  and  _218
REMARK   93  A    between atoms: _220  and  _222
REMARK   94  A    between atoms: _222  and  _223
REMARK   95  A    between atoms: _222  and  _225
REMARK   96  A    between atoms: _225  and  _226
REMARK   97  A    between atoms: _227  and  _229
REMARK   98  A    between atoms: _229  and  _230
REMARK   99  A    between atoms: _233  and  _235
REMARK  100  A    between atoms: _235  and  _236
REMARK  101  A    between atoms: _235  and  _238
REMARK  102  A    between atoms: _238  and  _239
REMARK  103  A    between atoms: _239  and  _240
REMARK  104  A    between atoms: _245  and  _247
REMARK  105  A    between atoms: _247  and  _248
REMARK  106  A    between atoms: _247  and  _250
REMARK  107  A    between atoms: _250  and  _251
REMARK  108  A    between atoms: _251  and  _252
REMARK  109  A    between atoms: _252  and  _253
REMARK  110  A    between atoms: _253  and  _254
REMARK  111  A    between atoms: _259  and  _260
REMARK  112  A    between atoms: _265  and  _267
REMARK  113  A    between atoms: _267  and  _268
REMARK  114  A    between atoms: _270  and  _272
REMARK  115  A    between atoms: _272  and  _273
REMARK  116  A    between atoms: _272  and  _275
REMARK  117  A    between atoms: _278  and  _280
REMARK  118  A    between atoms: _280  and  _281
REMARK  119  A    between atoms: _280  and  _283
REMARK  120  A    between atoms: _283  and  _284
REMARK  121  A    between atoms: _289  and  _290
REMARK                            x       y       z     vdW  Elec       q    Type
REMARK                         _______ _______ _______ _____ _____    ______ ____
ROOT
ATOM      1  O   HOH     1      48.799  27.122  54.268  0.00  0.00    +0.000 OA
ENDROOT
TORSDOF 0
REMARK  Name = ../refined-set-2016/1c5p/1c5p_pocket.pdb
REMARK  121 active torsions:
REMARK  status: ('A' for Active; 'I' for Inactive)
REMARK    1  A    between atoms: _1  and  _5
REMARK    2  A    between atoms: _5  and  _6
REMARK    3  A    between atoms: _5  and  _8
REMARK    4  A    between atoms: _8  and  _9
REMARK    5  A    between atoms: _12  and  _14
REMARK    6  A    between atoms: _14  and  _15
REMARK    7  A    between atoms: _14  and  _17
REMARK    8  A    between atoms: _20  and  _22
REMARK    9  A    between atoms: _22  and  _23
REMARK   10  A    between atoms: _22  and  _25
REMARK   11  A    between atoms: _25  and  _26
REMARK   12  A    between atoms: _31  and  _33
REMARK   13  A    between atoms: _33  and  _34
REMARK   14  A    between atoms: _33  and  _36
REMARK   15  A    between atoms: _36  and  _37
REMARK   16  A    between atoms: _40  and  _42
REMARK   17  A    between atoms: _42  and  _43
REMARK   18  A    between atoms: _42  and  _45
REMARK   19  A    between atoms: _45  and  _46
REMARK   20  A    between atoms: _49  and  _51
REMARK   21  A    between atoms: _51  and  _52
REMARK   22  A    between atoms: _51  and  _54
REMARK   23  A    between atoms: _54  and  _55
REMARK   24  A    between atoms: _60  and  _62
REMARK   25  A    between atoms: _62  and  _63
REMARK   26  A    between atoms: _62  and  _65
REMARK   27  A    between atoms: _65  and  _66
REMARK   28  A    between atoms: _71  and  _72
REMARK   29  A    between atoms: _74  and  _76
REMARK   30  A    between atoms: _76  and  _77
REMARK   31  A    between atoms: _80  and  _82
REMARK   32  A    between atoms: _82  and  _83
REMARK   33  A    between atoms: _82  and  _85
REMARK   34  A    between atoms: _85  and  _86
REMARK   35  A    between atoms: _86  and  _87
REMARK   36  A    between atoms: _87  and  _88
REMARK   37  A    between atoms: _88  and  _89
REMARK   38  A    between atoms: _93  and  _95
REMARK   39  A    between atoms: _95  and  _96
REMARK   40  A    between atoms: _95  and  _98
REMARK   41  A    between atoms: _98  and  _99
REMARK   42  A    between atoms: _102  and  _104
REMARK   43  A    between atoms: _104  and  _105
REMARK   44  A    between atoms: _104  and  _107
REMARK   45  A    between atoms: _107  and  _108
REMARK   46  A    between atoms: _110  and  _112
REMARK   47  A    between atoms: _112  and  _113
REMARK   48  A    between atoms: _112  and  _115
REMARK   49  A    between atoms: _115  and  _116
REMARK   50  A    between atoms: _116  and  _226
REMARK   51  A    between atoms: _117  and  _119
REMARK   52  A    between atoms: _119  and  _120
REMARK   53  A    between atoms: _119  and  _122
REMARK   54  A    between atoms: _122  and  _123
REMARK   55  A    between atoms: _123  and  _124
REMARK   56  A    between atoms: _129  and  _131
REMARK   57  A    between atoms: _131  and  _132
REMARK   58  A    between atoms: _134  and  _136
REMARK   59  A    between atoms: _136  and  _137
REMARK   60  A    between atoms: _136  and  _139
REMARK   61  A    between atoms: _139  and  _140
REMARK   62  A    between atoms: _143  and  _145
REMARK   63  A    between atoms: _145  and  _146
REMARK   64  A    between atoms: _145  and  _148
REMARK   65  A    between atoms: _148  and  _149
REMARK   66  A    between atoms: _151  and  _153
REMARK   67  A    between atoms: _153  and  _154
REMARK   68  A    between atoms: _156  and  _158
REMARK   69  A    between atoms: _158  and  _159
REMARK   70  A    between atoms: _161  and  _163
REMARK   71  A    between atoms: _163  and  _164
REMARK   72  A    between atoms: _163  and  _166
REMARK   73  A    between atoms: _166  and  _167
REMARK   74  A    between atoms: _170  and  _172
REMARK   75  A    between atoms: _172  and  _173
REMARK   76  A    between atoms: _172  and  _175
REMARK   77  A    between atoms: _178  and  _180
REMARK   78  A    between atoms: _180  and  _181
REMARK   79  A    between atoms: _180  and  _183
REMARK   80  A    between atoms: _183  and  _184
REMARK   81  A    between atoms: _186  and  _188
REMARK   82  A    between atoms: _188  and  _189
REMARK   83  A    between atoms: _188  and  _191
REMARK   84  A    between atoms: _191  and  _192
REMARK   85  A    between atoms: _202  and  _204
REMARK   86  A    between atoms: _204  and  _205
REMARK   87  A    between atoms: _207  and  _209
REMARK   88  A    between atoms: _209  and  _210
REMARK   89  A    between atoms: _209  and  _212
REMARK   90  A    between atoms: _212  and  _213
REMARK   91  A    between atoms: _215  and  _217
REMARK   92  A    between atoms: _217  and  _218
REMARK   93  A    between atoms: _220  and  _222
REMARK   94  A    between atoms: _222  and  _223
REMARK   95  A    between atoms: _222  and  _225
REMARK   96  A    between atoms: _225  and  _226
REMARK   97  A    between atoms: _227  and  _229
REMARK   98  A    between atoms: _229  and  _230
REMARK   99  A    between atoms: _233  and  _235
REMARK  100  A    between atoms: _235  and  _236
REMARK  101  A    between atoms: _235  and  _238
REMARK  102  A    between atoms: _238  and  _239
REMARK  103  A    between atoms: _239  and  _240
REMARK  104  A    between atoms: _245  and  _247
REMARK  105  A    between atoms: _247  and  _248
REMARK  106  A    between atoms: _247  and  _250
REMARK  107  A    between atoms: _250  and  _251
REMARK  108  A    between atoms: _251  and  _252
REMARK  109  A    between atoms: _252  and  _253
REMARK  110  A    between atoms: _253  and  _254
REMARK  111  A    between atoms: _259  and  _260
REMARK  112  A    between atoms: _265  and  _267
REMARK  113  A    between atoms: _267  and  _268
REMARK  114  A    between atoms: _270  and  _272
REMARK  115  A    between atoms: _272  and  _273
REMARK  116  A    between atoms: _272  and  _275
REMARK  117  A    between atoms: _278  and  _280
REMARK  118  A    between atoms: _280  and  _281
REMARK  119  A    between atoms: _280  and  _283
REMARK  120  A    between atoms: _283  and  _284
REMARK  121  A    between atoms: _289  and  _290
REMARK                            x       y       z     vdW  Elec       q    Type
REMARK                         _______ _______ _______ _____ _____    ______ ____
ROOT
ATOM      1  O   HOH     1      51.877  23.904  51.210  0.00  0.00    +0.000 OA
ENDROOT
TORSDOF 0
REMARK  Name = ../refined-set-2016/1c5p/1c5p_pocket.pdb
REMARK  121 active torsions:
REMARK  status: ('A' for Active; 'I' for Inactive)
REMARK    1  A    between atoms: _1  and  _5
REMARK    2  A    between atoms: _5  and  _6
REMARK    3  A    between atoms: _5  and  _8
REMARK    4  A    between atoms: _8  and  _9
REMARK    5  A    between atoms: _12  and  _14
REMARK    6  A    between atoms: _14  and  _15
REMARK    7  A    between atoms: _14  and  _17
REMARK    8  A    between atoms: _20  and  _22
REMARK    9  A    between atoms: _22  and  _23
REMARK   10  A    between atoms: _22  and  _25
REMARK   11  A    between atoms: _25  and  _26
REMARK   12  A    between atoms: _31  and  _33
REMARK   13  A    between atoms: _33  and  _34
REMARK   14  A    between atoms: _33  and  _36
REMARK   15  A    between atoms: _36  and  _37
REMARK   16  A    between atoms: _40  and  _42
REMARK   17  A    between atoms: _42  and  _43
REMARK   18  A    between atoms: _42  and  _45
REMARK   19  A    between atoms: _45  and  _46
REMARK   20  A    between atoms: _49  and  _51
REMARK   21  A    between atoms: _51  and  _52
REMARK   22  A    between atoms: _51  and  _54
REMARK   23  A    between atoms: _54  and  _55
REMARK   24  A    between atoms: _60  and  _62
REMARK   25  A    between atoms: _62  and  _63
REMARK   26  A    between atoms: _62  and  _65
REMARK   27  A    between atoms: _65  and  _66
REMARK   28  A    between atoms: _71  and  _72
REMARK   29  A    between atoms: _74  and  _76
REMARK   30  A    between atoms: _76  and  _77
REMARK   31  A    between atoms: _80  and  _82
REMARK   32  A    between atoms: _82  and  _83
REMARK   33  A    between atoms: _82  and  _85
REMARK   34  A    between atoms: _85  and  _86
REMARK   35  A    between atoms: _86  and  _87
REMARK   36  A    between atoms: _87  and  _88
REMARK   37  A    between atoms: _88  and  _89
REMARK   38  A    between atoms: _93  and  _95
REMARK   39  A    between atoms: _95  and  _96
REMARK   40  A    between atoms: _95  and  _98
REMARK   41  A    between atoms: _98  and  _99
REMARK   42  A    between atoms: _102  and  _104
REMARK   43  A    between atoms: _104  and  _105
REMARK   44  A    between atoms: _104  and  _107
REMARK   45  A    between atoms: _107  and  _108
REMARK   46  A    between atoms: _110  and  _112
REMARK   47  A    between atoms: _112  and  _113
REMARK   48  A    between atoms: _112  and  _115
REMARK   49  A    between atoms: _115  and  _116
REMARK   50  A    between atoms: _116  and  _226
REMARK   51  A    between atoms: _117  and  _119
REMARK   52  A    between atoms: _119  and  _120
REMARK   53  A    between atoms: _119  and  _122
REMARK   54  A    between atoms: _122  and  _123
REMARK   55  A    between atoms: _123  and  _124
REMARK   56  A    between atoms: _129  and  _131
REMARK   57  A    between atoms: _131  and  _132
REMARK   58  A    between atoms: _134  and  _136
REMARK   59  A    between atoms: _136  and  _137
REMARK   60  A    between atoms: _136  and  _139
REMARK   61  A    between atoms: _139  and  _140
REMARK   62  A    between atoms: _143  and  _145
REMARK   63  A    between atoms: _145  and  _146
REMARK   64  A    between atoms: _145  and  _148
REMARK   65  A    between atoms: _148  and  _149
REMARK   66  A    between atoms: _151  and  _153
REMARK   67  A    between atoms: _153  and  _154
REMARK   68  A    between atoms: _156  and  _158
REMARK   69  A    between atoms: _158  and  _159
REMARK   70  A    between atoms: _161  and  _163
REMARK   71  A    between atoms: _163  and  _164
REMARK   72  A    between atoms: _163  and  _166
REMARK   73  A    between atoms: _166  and  _167
REMARK   74  A    between atoms: _170  and  _172
REMARK   75  A    between atoms: _172  and  _173
REMARK   76  A    between atoms: _172  and  _175
REMARK   77  A    between atoms: _178  and  _180
REMARK   78  A    between atoms: _180  and  _181
REMARK   79  A    between atoms: _180  and  _183
REMARK   80  A    between atoms: _183  and  _184
REMARK   81  A    between atoms: _186  and  _188
REMARK   82  A    between atoms: _188  and  _189
REMARK   83  A    between atoms: _188  and  _191
REMARK   84  A    between atoms: _191  and  _192
REMARK   85  A    between atoms: _202  and  _204
REMARK   86  A    between atoms: _204  and  _205
REMARK   87  A    between atoms: _207  and  _209
REMARK   88  A    between atoms: _209  and  _210
REMARK   89  A    between atoms: _209  and  _212
REMARK   90  A    between atoms: _212  and  _213
REMARK   91  A    between atoms: _215  and  _217
REMARK   92  A    between atoms: _217  and  _218
REMARK   93  A    between atoms: _220  and  _222
REMARK   94  A    between atoms: _222  and  _223
REMARK   95  A    between atoms: _222  and  _225
REMARK   96  A    between atoms: _225  and  _226
REMARK   97  A    between atoms: _227  and  _229
REMARK   98  A    between atoms: _229  and  _230
REMARK   99  A    between atoms: _233  and  _235
REMARK  100  A    between atoms: _235  and  _236
REMARK  101  A    between atoms: _235  and  _238
REMARK  102  A    between atoms: _238  and  _239
REMARK  103  A    between atoms: _239  and  _240
REMARK  104  A    between atoms: _245  and  _247
REMARK  105  A    between atoms: _247  and  _248
REMARK  106  A    between atoms: _247  and  _250
REMARK  107  A    between atoms: _250  and  _251
REMARK  108  A    between atoms: _251  and  _252
REMARK  109  A    between atoms: _252  and  _253
REMARK  110  A    between atoms: _253  and  _254
REMARK  111  A    between atoms: _259  and  _260
REMARK  112  A    between atoms: _265  and  _267
REMARK  113  A    between atoms: _267  and  _268
REMARK  114  A    between atoms: _270  and  _272
REMARK  115  A    between atoms: _272  and  _273
REMARK  116  A    between atoms: _272  and  _275
REMARK  117  A    between atoms: _278  and  _280
REMARK  118  A    between atoms: _280  and  _281
REMARK  119  A    between atoms: _280  and  _283
REMARK  120  A    between atoms: _283  and  _284
REMARK  121  A    between atoms: _289  and  _290
REMARK                            x       y       z     vdW  Elec       q    Type
REMARK                         _______ _______ _______ _____ _____    ______ ____
ROOT
ATOM      1  O   HOH     1      46.665  24.916  55.493  0.00  0.00    +0.000 OA
ENDROOT
TORSDOF 0
REMARK  Name = ../refined-set-2016/1c5p/1c5p_pocket.pdb
REMARK  121 active torsions:
REMARK  status: ('A' for Active; 'I' for Inactive)
REMARK    1  A    between atoms: _1  and  _5
REMARK    2  A    between atoms: _5  and  _6
REMARK    3  A    between atoms: _5  and  _8
REMARK    4  A    between atoms: _8  and  _9
REMARK    5  A    between atoms: _12  and  _14
REMARK    6  A    between atoms: _14  and  _15
REMARK    7  A    between atoms: _14  and  _17
REMARK    8  A    between atoms: _20  and  _22
REMARK    9  A    between atoms: _22  and  _23
REMARK   10  A    between atoms: _22  and  _25
REMARK   11  A    between atoms: _25  and  _26
REMARK   12  A    between atoms: _31  and  _33
REMARK   13  A    between atoms: _33  and  _34
REMARK   14  A    between atoms: _33  and  _36
REMARK   15  A    between atoms: _36  and  _37
REMARK   16  A    between atoms: _40  and  _42
REMARK   17  A    between atoms: _42  and  _43
REMARK   18  A    between atoms: _42  and  _45
REMARK   19  A    between atoms: _45  and  _46
REMARK   20  A    between atoms: _49  and  _51
REMARK   21  A    between atoms: _51  and  _52
REMARK   22  A    between atoms: _51  and  _54
REMARK   23  A    between atoms: _54  and  _55
REMARK   24  A    between atoms: _60  and  _62
REMARK   25  A    between atoms: _62  and  _63
REMARK   26  A    between atoms: _62  and  _65
REMARK   27  A    between atoms: _65  and  _66
REMARK   28  A    between atoms: _71  and  _72
REMARK   29  A    between atoms: _74  and  _76
REMARK   30  A    between atoms: _76  and  _77
REMARK   31  A    between atoms: _80  and  _82
REMARK   32  A    between atoms: _82  and  _83
REMARK   33  A    between atoms: _82  and  _85
REMARK   34  A    between atoms: _85  and  _86
REMARK   35  A    between atoms: _86  and  _87
REMARK   36  A    between atoms: _87  and  _88
REMARK   37  A    between atoms: _88  and  _89
REMARK   38  A    between atoms: _93  and  _95
REMARK   39  A    between atoms: _95  and  _96
REMARK   40  A    between atoms: _95  and  _98
REMARK   41  A    between atoms: _98  and  _99
REMARK   42  A    between atoms: _102  and  _104
REMARK   43  A    between atoms: _104  and  _105
REMARK   44  A    between atoms: _104  and  _107
REMARK   45  A    between atoms: _107  and  _108
REMARK   46  A    between atoms: _110  and  _112
REMARK   47  A    between atoms: _112  and  _113
REMARK   48  A    between atoms: _112  and  _115
REMARK   49  A    between atoms: _115  and  _116
REMARK   50  A    between atoms: _116  and  _226
REMARK   51  A    between atoms: _117  and  _119
REMARK   52  A    between atoms: _119  and  _120
REMARK   53  A    between atoms: _119  and  _122
REMARK   54  A    between atoms: _122  and  _123
REMARK   55  A    between atoms: _123  and  _124
REMARK   56  A    between atoms: _129  and  _131
REMARK   57  A    between atoms: _131  and  _132
REMARK   58  A    between atoms: _134  and  _136
REMARK   59  A    between atoms: _136  and  _137
REMARK   60  A    between atoms: _136  and  _139
REMARK   61  A    between atoms: _139  and  _140
REMARK   62  A    between atoms: _143  and  _145
REMARK   63  A    between atoms: _145  and  _146
REMARK   64  A    between atoms: _145  and  _148
REMARK   65  A    between atoms: _148  and  _149
REMARK   66  A    between atoms: _151  and  _153
REMARK   67  A    between atoms: _153  and  _154
REMARK   68  A    between atoms: _156  and  _158
REMARK   69  A    between atoms: _158  and  _159
REMARK   70  A    between atoms: _161  and  _163
REMARK   71  A    between atoms: _163  and  _164
REMARK   72  A    between atoms: _163  and  _166
REMARK   73  A    between atoms: _166  and  _167
REMARK   74  A    between atoms: _170  and  _172
REMARK   75  A    between atoms: _172  and  _173
REMARK   76  A    between atoms: _172  and  _175
REMARK   77  A    between atoms: _178  and  _180
REMARK   78  A    between atoms: _180  and  _181
REMARK   79  A    between atoms: _180  and  _183
REMARK   80  A    between atoms: _183  and  _184
REMARK   81  A    between atoms: _186  and  _188
REMARK   82  A    between atoms: _188  and  _189
REMARK   83  A    between atoms: _188  and  _191
REMARK   84  A    between atoms: _191  and  _192
REMARK   85  A    between atoms: _202  and  _204
REMARK   86  A    between atoms: _204  and  _205
REMARK   87  A    between atoms: _207  and  _209
REMARK   88  A    between atoms: _209  and  _210
REMARK   89  A    between atoms: _209  and  _212
REMARK   90  A    between atoms: _212  and  _213
REMARK   91  A    between atoms: _215  and  _217
REMARK   92  A    between atoms: _217  and  _218
REMARK   93  A    between atoms: _220  and  _222
REMARK   94  A    between atoms: _222  and  _223
REMARK   95  A    between atoms: _222  and  _225
REMARK   96  A    between atoms: _225  and  _226
REMARK   97  A    between atoms: _227  and  _229
REMARK   98  A    between atoms: _229  and  _230
REMARK   99  A    between atoms: _233  and  _235
REMARK  100  A    between atoms: _235  and  _236
REMARK  101  A    between atoms: _235  and  _238
REMARK  102  A    between atoms: _238  and  _239
REMARK  103  A    between atoms: _239  and  _240
REMARK  104  A    between atoms: _245  and  _247
REMARK  105  A    between atoms: _247  and  _248
REMARK  106  A    between atoms: _247  and  _250
REMARK  107  A    between atoms: _250  and  _251
REMARK  108  A    between atoms: _251  and  _252
REMARK  109  A    between atoms: _252  and  _253
REMARK  110  A    between atoms: _253  and  _254
REMARK  111  A    between atoms: _259  and  _260
REMARK  112  A    between atoms: _265  and  _267
REMARK  113  A    between atoms: _267  and  _268
REMARK  114  A    between atoms: _270  and  _272
REMARK  115  A    between atoms: _272  and  _273
REMARK  116  A    between atoms: _272  and  _275
REMARK  117  A    between atoms: _278  and  _280
REMARK  118  A    between atoms: _280  and  _281
REMARK  119  A    between atoms: _280  and  _283
REMARK  120  A    between atoms: _283  and  _284
REMARK  121  A    between atoms: _289  and  _290
REMARK                            x       y       z     vdW  Elec       q    Type
REMARK                         _______ _______ _______ _____ _____    ______ ____
ROOT
ATOM      1  O   HOH     1      44.033  24.746  56.520  0.00  0.00    +0.000 OA
ENDROOT
TORSDOF 0
REMARK  Name = ../refined-set-2016/1c5p/1c5p_pocket.pdb
REMARK  121 active torsions:
REMARK  status: ('A' for Active; 'I' for Inactive)
REMARK    1  A    between atoms: _1  and  _5
REMARK    2  A    between atoms: _5  and  _6
REMARK    3  A    between atoms: _5  and  _8
REMARK    4  A    between atoms: _8  and  _9
REMARK    5  A    between atoms: _12  and  _14
REMARK    6  A    between atoms: _14  and  _15
REMARK    7  A    between atoms: _14  and  _17
REMARK    8  A    between atoms: _20  and  _22
REMARK    9  A    between atoms: _22  and  _23
REMARK   10  A    between atoms: _22  and  _25
REMARK   11  A    between atoms: _25  and  _26
REMARK   12  A    between atoms: _31  and  _33
REMARK   13  A    between atoms: _33  and  _34
REMARK   14  A    between atoms: _33  and  _36
REMARK   15  A    between atoms: _36  and  _37
REMARK   16  A    between atoms: _40  and  _42
REMARK   17  A    between atoms: _42  and  _43
REMARK   18  A    between atoms: _42  and  _45
REMARK   19  A    between atoms: _45  and  _46
REMARK   20  A    between atoms: _49  and  _51
REMARK   21  A    between atoms: _51  and  _52
REMARK   22  A    between atoms: _51  and  _54
REMARK   23  A    between atoms: _54  and  _55
REMARK   24  A    between atoms: _60  and  _62
REMARK   25  A    between atoms: _62  and  _63
REMARK   26  A    between atoms: _62  and  _65
REMARK   27  A    between atoms: _65  and  _66
REMARK   28  A    between atoms: _71  and  _72
REMARK   29  A    between atoms: _74  and  _76
REMARK   30  A    between atoms: _76  and  _77
REMARK   31  A    between atoms: _80  and  _82
REMARK   32  A    between atoms: _82  and  _83
REMARK   33  A    between atoms: _82  and  _85
REMARK   34  A    between atoms: _85  and  _86
REMARK   35  A    between atoms: _86  and  _87
REMARK   36  A    between atoms: _87  and  _88
REMARK   37  A    between atoms: _88  and  _89
REMARK   38  A    between atoms: _93  and  _95
REMARK   39  A    between atoms: _95  and  _96
REMARK   40  A    between atoms: _95  and  _98
REMARK   41  A    between atoms: _98  and  _99
REMARK   42  A    between atoms: _102  and  _104
REMARK   43  A    between atoms: _104  and  _105
REMARK   44  A    between atoms: _104  and  _107
REMARK   45  A    between atoms: _107  and  _108
REMARK   46  A    between atoms: _110  and  _112
REMARK   47  A    between atoms: _112  and  _113
REMARK   48  A    between atoms: _112  and  _115
REMARK   49  A    between atoms: _115  and  _116
REMARK   50  A    between atoms: _116  and  _226
REMARK   51  A    between atoms: _117  and  _119
REMARK   52  A    between atoms: _119  and  _120
REMARK   53  A    between atoms: _119  and  _122
REMARK   54  A    between atoms: _122  and  _123
REMARK   55  A    between atoms: _123  and  _124
REMARK   56  A    between atoms: _129  and  _131
REMARK   57  A    between atoms: _131  and  _132
REMARK   58  A    between atoms: _134  and  _136
REMARK   59  A    between atoms: _136  and  _137
REMARK   60  A    between atoms: _136  and  _139
REMARK   61  A    between atoms: _139  and  _140
REMARK   62  A    between atoms: _143  and  _145
REMARK   63  A    between atoms: _145  and  _146
REMARK   64  A    between atoms: _145  and  _148
REMARK   65  A    between atoms: _148  and  _149
REMARK   66  A    between atoms: _151  and  _153
REMARK   67  A    between atoms: _153  and  _154
REMARK   68  A    between atoms: _156  and  _158
REMARK   69  A    between atoms: _158  and  _159
REMARK   70  A    between atoms: _161  and  _163
REMARK   71  A    between atoms: _163  and  _164
REMARK   72  A    between atoms: _163  and  _166
REMARK   73  A    between atoms: _166  and  _167
REMARK   74  A    between atoms: _170  and  _172
REMARK   75  A    between atoms: _172  and  _173
REMARK   76  A    between atoms: _172  and  _175
REMARK   77  A    between atoms: _178  and  _180
REMARK   78  A    between atoms: _180  and  _181
REMARK   79  A    between atoms: _180  and  _183
REMARK   80  A    between atoms: _183  and  _184
REMARK   81  A    between atoms: _186  and  _188
REMARK   82  A    between atoms: _188  and  _189
REMARK   83  A    between atoms: _188  and  _191
REMARK   84  A    between atoms: _191  and  _192
REMARK   85  A    between atoms: _202  and  _204
REMARK   86  A    between atoms: _204  and  _205
REMARK   87  A    between atoms: _207  and  _209
REMARK   88  A    between atoms: _209  and  _210
REMARK   89  A    between atoms: _209  and  _212
REMARK   90  A    between atoms: _212  and  _213
REMARK   91  A    between atoms: _215  and  _217
REMARK   92  A    between atoms: _217  and  _218
REMARK   93  A    between atoms: _220  and  _222
REMARK   94  A    between atoms: _222  and  _223
REMARK   95  A    between atoms: _222  and  _225
REMARK   96  A    between atoms: _225  and  _226
REMARK   97  A    between atoms: _227  and  _229
REMARK   98  A    between atoms: _229  and  _230
REMARK   99  A    between atoms: _233  and  _235
REMARK  100  A    between atoms: _235  and  _236
REMARK  101  A    between atoms: _235  and  _238
REMARK  102  A    between atoms: _238  and  _239
REMARK  103  A    between atoms: _239  and  _240
REMARK  104  A    between atoms: _245  and  _247
REMARK  105  A    between atoms: _247  and  _248
REMARK  106  A    between atoms: _247  and  _250
REMARK  107  A    between atoms: _250  and  _251
REMARK  108  A    between atoms: _251  and  _252
REMARK  109  A    between atoms: _252  and  _253
REMARK  110  A    between atoms: _253  and  _254
REMARK  111  A    between atoms: _259  and  _260
REMARK  112  A    between atoms: _265  and  _267
REMARK  113  A    between atoms: _267  and  _268
REMARK  114  A    between atoms: _270  and  _272
REMARK  115  A    between atoms: _272  and  _273
REMARK  116  A    between atoms: _272  and  _275
REMARK  117  A    between atoms: _278  and  _280
REMARK  118  A    between atoms: _280  and  _281
REMARK  119  A    between atoms: _280  and  _283
REMARK  120  A    between atoms: _283  and  _284
REMARK  121  A    between atoms: _289  and  _290
REMARK                            x       y       z     vdW  Elec       q    Type
REMARK                         _______ _______ _______ _____ _____    ______ ____
ROOT
ATOM      1  O   HOH     1      40.852  26.257  50.611  0.00  0.00    +0.000 OA
ENDROOT
TORSDOF 0
REMARK  Name = ../refined-set-2016/1c5p/1c5p_pocket.pdb
REMARK  121 active torsions:
REMARK  status: ('A' for Active; 'I' for Inactive)
REMARK    1  A    between atoms: _1  and  _5
REMARK    2  A    between atoms: _5  and  _6
REMARK    3  A    between atoms: _5  and  _8
REMARK    4  A    between atoms: _8  and  _9
REMARK    5  A    between atoms: _12  and  _14
REMARK    6  A    between atoms: _14  and  _15
REMARK    7  A    between atoms: _14  and  _17
REMARK    8  A    between atoms: _20  and  _22
REMARK    9  A    between atoms: _22  and  _23
REMARK   10  A    between atoms: _22  and  _25
REMARK   11  A    between atoms: _25  and  _26
REMARK   12  A    between atoms: _31  and  _33
REMARK   13  A    between atoms: _33  and  _34
REMARK   14  A    between atoms: _33  and  _36
REMARK   15  A    between atoms: _36  and  _37
REMARK   16  A    between atoms: _40  and  _42
REMARK   17  A    between atoms: _42  and  _43
REMARK   18  A    between atoms: _42  and  _45
REMARK   19  A    between atoms: _45  and  _46
REMARK   20  A    between atoms: _49  and  _51
REMARK   21  A    between atoms: _51  and  _52
REMARK   22  A    between atoms: _51  and  _54
REMARK   23  A    between atoms: _54  and  _55
REMARK   24  A    between atoms: _60  and  _62
REMARK   25  A    between atoms: _62  and  _63
REMARK   26  A    between atoms: _62  and  _65
REMARK   27  A    between atoms: _65  and  _66
REMARK   28  A    between atoms: _71  and  _72
REMARK   29  A    between atoms: _74  and  _76
REMARK   30  A    between atoms: _76  and  _77
REMARK   31  A    between atoms: _80  and  _82
REMARK   32  A    between atoms: _82  and  _83
REMARK   33  A    between atoms: _82  and  _85
REMARK   34  A    between atoms: _85  and  _86
REMARK   35  A    between atoms: _86  and  _87
REMARK   36  A    between atoms: _87  and  _88
REMARK   37  A    between atoms: _88  and  _89
REMARK   38  A    between atoms: _93  and  _95
REMARK   39  A    between atoms: _95  and  _96
REMARK   40  A    between atoms: _95  and  _98
REMARK   41  A    between atoms: _98  and  _99
REMARK   42  A    between atoms: _102  and  _104
REMARK   43  A    between atoms: _104  and  _105
REMARK   44  A    between atoms: _104  and  _107
REMARK   45  A    between atoms: _107  and  _108
REMARK   46  A    between atoms: _110  and  _112
REMARK   47  A    between atoms: _112  and  _113
REMARK   48  A    between atoms: _112  and  _115
REMARK   49  A    between atoms: _115  and  _116
REMARK   50  A    between atoms: _116  and  _226
REMARK   51  A    between atoms: _117  and  _119
REMARK   52  A    between atoms: _119  and  _120
REMARK   53  A    between atoms: _119  and  _122
REMARK   54  A    between atoms: _122  and  _123
REMARK   55  A    between atoms: _123  and  _124
REMARK   56  A    between atoms: _129  and  _131
REMARK   57  A    between atoms: _131  and  _132
REMARK   58  A    between atoms: _134  and  _136
REMARK   59  A    between atoms: _136  and  _137
REMARK   60  A    between atoms: _136  and  _139
REMARK   61  A    between atoms: _139  and  _140
REMARK   62  A    between atoms: _143  and  _145
REMARK   63  A    between atoms: _145  and  _146
REMARK   64  A    between atoms: _145  and  _148
REMARK   65  A    between atoms: _148  and  _149
REMARK   66  A    between atoms: _151  and  _153
REMARK   67  A    between atoms: _153  and  _154
REMARK   68  A    between atoms: _156  and  _158
REMARK   69  A    between atoms: _158  and  _159
REMARK   70  A    between atoms: _161  and  _163
REMARK   71  A    between atoms: _163  and  _164
REMARK   72  A    between atoms: _163  and  _166
REMARK   73  A    between atoms: _166  and  _167
REMARK   74  A    between atoms: _170  and  _172
REMARK   75  A    between atoms: _172  and  _173
REMARK   76  A    between atoms: _172  and  _175
REMARK   77  A    between atoms: _178  and  _180
REMARK   78  A    between atoms: _180  and  _181
REMARK   79  A    between atoms: _180  and  _183
REMARK   80  A    between atoms: _183  and  _184
REMARK   81  A    between atoms: _186  and  _188
REMARK   82  A    between atoms: _188  and  _189
REMARK   83  A    between atoms: _188  and  _191
REMARK   84  A    between atoms: _191  and  _192
REMARK   85  A    between atoms: _202  and  _204
REMARK   86  A    between atoms: _204  and  _205
REMARK   87  A    between atoms: _207  and  _209
REMARK   88  A    between atoms: _209  and  _210
REMARK   89  A    between atoms: _209  and  _212
REMARK   90  A    between atoms: _212  and  _213
REMARK   91  A    between atoms: _215  and  _217
REMARK   92  A    between atoms: _217  and  _218
REMARK   93  A    between atoms: _220  and  _222
REMARK   94  A    between atoms: _222  and  _223
REMARK   95  A    between atoms: _222  and  _225
REMARK   96  A    between atoms: _225  and  _226
REMARK   97  A    between atoms: _227  and  _229
REMARK   98  A    between atoms: _229  and  _230
REMARK   99  A    between atoms: _233  and  _235
REMARK  100  A    between atoms: _235  and  _236
REMARK  101  A    between atoms: _235  and  _238
REMARK  102  A    between atoms: _238  and  _239
REMARK  103  A    between atoms: _239  and  _240
REMARK  104  A    between atoms: _245  and  _247
REMARK  105  A    between atoms: _247  and  _248
REMARK  106  A    between atoms: _247  and  _250
REMARK  107  A    between atoms: _250  and  _251
REMARK  108  A    between atoms: _251  and  _252
REMARK  109  A    between atoms: _252  and  _253
REMARK  110  A    between atoms: _253  and  _254
REMARK  111  A    between atoms: _259  and  _260
REMARK  112  A    between atoms: _265  and  _267
REMARK  113  A    between atoms: _267  and  _268
REMARK  114  A    between atoms: _270  and  _272
REMARK  115  A    between atoms: _272  and  _273
REMARK  116  A    between atoms: _272  and  _275
REMARK  117  A    between atoms: _278  and  _280
REMARK  118  A    between atoms: _280  and  _281
REMARK  119  A    between atoms: _280  and  _283
REMARK  120  A    between atoms: _283  and  _284
REMARK  121  A    between atoms: _289  and  _290
REMARK                            x       y       z     vdW  Elec       q    Type
REMARK                         _______ _______ _______ _____ _____    ______ ____
ROOT
ATOM      1  O   HOH     1      48.749  26.518  47.826  0.00  0.00    +0.000 OA
ENDROOT
TORSDOF 0
REMARK  Name = ../refined-set-2016/1c5p/1c5p_pocket.pdb
REMARK  121 active torsions:
REMARK  status: ('A' for Active; 'I' for Inactive)
REMARK    1  A    between atoms: _1  and  _5
REMARK    2  A    between atoms: _5  and  _6
REMARK    3  A    between atoms: _5  and  _8
REMARK    4  A    between atoms: _8  and  _9
REMARK    5  A    between atoms: _12  and  _14
REMARK    6  A    between atoms: _14  and  _15
REMARK    7  A    between atoms: _14  and  _17
REMARK    8  A    between atoms: _20  and  _22
REMARK    9  A    between atoms: _22  and  _23
REMARK   10  A    between atoms: _22  and  _25
REMARK   11  A    between atoms: _25  and  _26
REMARK   12  A    between atoms: _31  and  _33
REMARK   13  A    between atoms: _33  and  _34
REMARK   14  A    between atoms: _33  and  _36
REMARK   15  A    between atoms: _36  and  _37
REMARK   16  A    between atoms: _40  and  _42
REMARK   17  A    between atoms: _42  and  _43
REMARK   18  A    between atoms: _42  and  _45
REMARK   19  A    between atoms: _45  and  _46
REMARK   20  A    between atoms: _49  and  _51
REMARK   21  A    between atoms: _51  and  _52
REMARK   22  A    between atoms: _51  and  _54
REMARK   23  A    between atoms: _54  and  _55
REMARK   24  A    between atoms: _60  and  _62
REMARK   25  A    between atoms: _62  and  _63
REMARK   26  A    between atoms: _62  and  _65
REMARK   27  A    between atoms: _65  and  _66
REMARK   28  A    between atoms: _71  and  _72
REMARK   29  A    between atoms: _74  and  _76
REMARK   30  A    between atoms: _76  and  _77
REMARK   31  A    between atoms: _80  and  _82
REMARK   32  A    between atoms: _82  and  _83
REMARK   33  A    between atoms: _82  and  _85
REMARK   34  A    between atoms: _85  and  _86
REMARK   35  A    between atoms: _86  and  _87
REMARK   36  A    between atoms: _87  and  _88
REMARK   37  A    between atoms: _88  and  _89
REMARK   38  A    between atoms: _93  and  _95
REMARK   39  A    between atoms: _95  and  _96
REMARK   40  A    between atoms: _95  and  _98
REMARK   41  A    between atoms: _98  and  _99
REMARK   42  A    between atoms: _102  and  _104
REMARK   43  A    between atoms: _104  and  _105
REMARK   44  A    between atoms: _104  and  _107
REMARK   45  A    between atoms: _107  and  _108
REMARK   46  A    between atoms: _110  and  _112
REMARK   47  A    between atoms: _112  and  _113
REMARK   48  A    between atoms: _112  and  _115
REMARK   49  A    between atoms: _115  and  _116
REMARK   50  A    between atoms: _116  and  _226
REMARK   51  A    between atoms: _117  and  _119
REMARK   52  A    between atoms: _119  and  _120
REMARK   53  A    between atoms: _119  and  _122
REMARK   54  A    between atoms: _122  and  _123
REMARK   55  A    between atoms: _123  and  _124
REMARK   56  A    between atoms: _129  and  _131
REMARK   57  A    between atoms: _131  and  _132
REMARK   58  A    between atoms: _134  and  _136
REMARK   59  A    between atoms: _136  and  _137
REMARK   60  A    between atoms: _136  and  _139
REMARK   61  A    between atoms: _139  and  _140
REMARK   62  A    between atoms: _143  and  _145
REMARK   63  A    between atoms: _145  and  _146
REMARK   64  A    between atoms: _145  and  _148
REMARK   65  A    between atoms: _148  and  _149
REMARK   66  A    between atoms: _151  and  _153
REMARK   67  A    between atoms: _153  and  _154
REMARK   68  A    between atoms: _156  and  _158
REMARK   69  A    between atoms: _158  and  _159
REMARK   70  A    between atoms: _161  and  _163
REMARK   71  A    between atoms: _163  and  _164
REMARK   72  A    between atoms: _163  and  _166
REMARK   73  A    between atoms: _166  and  _167
REMARK   74  A    between atoms: _170  and  _172
REMARK   75  A    between atoms: _172  and  _173
REMARK   76  A    between atoms: _172  and  _175
REMARK   77  A    between atoms: _178  and  _180
REMARK   78  A    between atoms: _180  and  _181
REMARK   79  A    between atoms: _180  and  _183
REMARK   80  A    between atoms: _183  and  _184
REMARK   81  A    between atoms: _186  and  _188
REMARK   82  A    between atoms: _188  and  _189
REMARK   83  A    between atoms: _188  and  _191
REMARK   84  A    between atoms: _191  and  _192
REMARK   85  A    between atoms: _202  and  _204
REMARK   86  A    between atoms: _204  and  _205
REMARK   87  A    between atoms: _207  and  _209
REMARK   88  A    between atoms: _209  and  _210
REMARK   89  A    between atoms: _209  and  _212
REMARK   90  A    between atoms: _212  and  _213
REMARK   91  A    between atoms: _215  and  _217
REMARK   92  A    between atoms: _217  and  _218
REMARK   93  A    between atoms: _220  and  _222
REMARK   94  A    between atoms: _222  and  _223
REMARK   95  A    between atoms: _222  and  _225
REMARK   96  A    between atoms: _225  and  _226
REMARK   97  A    between atoms: _227  and  _229
REMARK   98  A    between atoms: _229  and  _230
REMARK   99  A    between atoms: _233  and  _235
REMARK  100  A    between atoms: _235  and  _236
REMARK  101  A    between atoms: _235  and  _238
REMARK  102  A    between atoms: _238  and  _239
REMARK  103  A    between atoms: _239  and  _240
REMARK  104  A    between atoms: _245  and  _247
REMARK  105  A    between atoms: _247  and  _248
REMARK  106  A    between atoms: _247  and  _250
REMARK  107  A    between atoms: _250  and  _251
REMARK  108  A    between atoms: _251  and  _252
REMARK  109  A    between atoms: _252  and  _253
REMARK  110  A    between atoms: _253  and  _254
REMARK  111  A    between atoms: _259  and  _260
REMARK  112  A    between atoms: _265  and  _267
REMARK  113  A    between atoms: _267  and  _268
REMARK  114  A    between atoms: _270  and  _272
REMARK  115  A    between atoms: _272  and  _273
REMARK  116  A    between atoms: _272  and  _275
REMARK  117  A    between atoms: _278  and  _280
REMARK  118  A    between atoms: _280  and  _281
REMARK  119  A    between atoms: _280  and  _283
REMARK  120  A    between atoms: _283  and  _284
REMARK  121  A    between atoms: _289  and  _290
REMARK                            x       y       z     vdW  Elec       q    Type
REMARK                         _______ _______ _______ _____ _____    ______ ____
ROOT
ATOM      1  O   HOH     1      42.876  23.739  53.744  0.00  0.00    +0.000 OA
ENDROOT
TORSDOF 0
REMARK  Name = ../refined-set-2016/1c5p/1c5p_pocket.pdb
REMARK  121 active torsions:
REMARK  status: ('A' for Active; 'I' for Inactive)
REMARK    1  A    between atoms: _1  and  _5
REMARK    2  A    between atoms: _5  and  _6
REMARK    3  A    between atoms: _5  and  _8
REMARK    4  A    between atoms: _8  and  _9
REMARK    5  A    between atoms: _12  and  _14
REMARK    6  A    between atoms: _14  and  _15
REMARK    7  A    between atoms: _14  and  _17
REMARK    8  A    between atoms: _20  and  _22
REMARK    9  A    between atoms: _22  and  _23
REMARK   10  A    between atoms: _22  and  _25
REMARK   11  A    between atoms: _25  and  _26
REMARK   12  A    between atoms: _31  and  _33
REMARK   13  A    between atoms: _33  and  _34
REMARK   14  A    between atoms: _33  and  _36
REMARK   15  A    between atoms: _36  and  _37
REMARK   16  A    between atoms: _40  and  _42
REMARK   17  A    between atoms: _42  and  _43
REMARK   18  A    between atoms: _42  and  _45
REMARK   19  A    between atoms: _45  and  _46
REMARK   20  A    between atoms: _49  and  _51
REMARK   21  A    between atoms: _51  and  _52
REMARK   22  A    between atoms: _51  and  _54
REMARK   23  A    between atoms: _54  and  _55
REMARK   24  A    between atoms: _60  and  _62
REMARK   25  A    between atoms: _62  and  _63
REMARK   26  A    between atoms: _62  and  _65
REMARK   27  A    between atoms: _65  and  _66
REMARK   28  A    between atoms: _71  and  _72
REMARK   29  A    between atoms: _74  and  _76
REMARK   30  A    between atoms: _76  and  _77
REMARK   31  A    between atoms: _80  and  _82
REMARK   32  A    between atoms: _82  and  _83
REMARK   33  A    between atoms: _82  and  _85
REMARK   34  A    between atoms: _85  and  _86
REMARK   35  A    between atoms: _86  and  _87
REMARK   36  A    between atoms: _87  and  _88
REMARK   37  A    between atoms: _88  and  _89
REMARK   38  A    between atoms: _93  and  _95
REMARK   39  A    between atoms: _95  and  _96
REMARK   40  A    between atoms: _95  and  _98
REMARK   41  A    between atoms: _98  and  _99
REMARK   42  A    between atoms: _102  and  _104
REMARK   43  A    between atoms: _104  and  _105
REMARK   44  A    between atoms: _104  and  _107
REMARK   45  A    between atoms: _107  and  _108
REMARK   46  A    between atoms: _110  and  _112
REMARK   47  A    between atoms: _112  and  _113
REMARK   48  A    between atoms: _112  and  _115
REMARK   49  A    between atoms: _115  and  _116
REMARK   50  A    between atoms: _116  and  _226
REMARK   51  A    between atoms: _117  and  _119
REMARK   52  A    between atoms: _119  and  _120
REMARK   53  A    between atoms: _119  and  _122
REMARK   54  A    between atoms: _122  and  _123
REMARK   55  A    between atoms: _123  and  _124
REMARK   56  A    between atoms: _129  and  _131
REMARK   57  A    between atoms: _131  and  _132
REMARK   58  A    between atoms: _134  and  _136
REMARK   59  A    between atoms: _136  and  _137
REMARK   60  A    between atoms: _136  and  _139
REMARK   61  A    between atoms: _139  and  _140
REMARK   62  A    between atoms: _143  and  _145
REMARK   63  A    between atoms: _145  and  _146
REMARK   64  A    between atoms: _145  and  _148
REMARK   65  A    between atoms: _148  and  _149
REMARK   66  A    between atoms: _151  and  _153
REMARK   67  A    between atoms: _153  and  _154
REMARK   68  A    between atoms: _156  and  _158
REMARK   69  A    between atoms: _158  and  _159
REMARK   70  A    between atoms: _161  and  _163
REMARK   71  A    between atoms: _163  and  _164
REMARK   72  A    between atoms: _163  and  _166
REMARK   73  A    between atoms: _166  and  _167
REMARK   74  A    between atoms: _170  and  _172
REMARK   75  A    between atoms: _172  and  _173
REMARK   76  A    between atoms: _172  and  _175
REMARK   77  A    between atoms: _178  and  _180
REMARK   78  A    between atoms: _180  and  _181
REMARK   79  A    between atoms: _180  and  _183
REMARK   80  A    between atoms: _183  and  _184
REMARK   81  A    between atoms: _186  and  _188
REMARK   82  A    between atoms: _188  and  _189
REMARK   83  A    between atoms: _188  and  _191
REMARK   84  A    between atoms: _191  and  _192
REMARK   85  A    between atoms: _202  and  _204
REMARK   86  A    between atoms: _204  and  _205
REMARK   87  A    between atoms: _207  and  _209
REMARK   88  A    between atoms: _209  and  _210
REMARK   89  A    between atoms: _209  and  _212
REMARK   90  A    between atoms: _212  and  _213
REMARK   91  A    between atoms: _215  and  _217
REMARK   92  A    between atoms: _217  and  _218
REMARK   93  A    between atoms: _220  and  _222
REMARK   94  A    between atoms: _222  and  _223
REMARK   95  A    between atoms: _222  and  _225
REMARK   96  A    between atoms: _225  and  _226
REMARK   97  A    between atoms: _227  and  _229
REMARK   98  A    between atoms: _229  and  _230
REMARK   99  A    between atoms: _233  and  _235
REMARK  100  A    between atoms: _235  and  _236
REMARK  101  A    between atoms: _235  and  _238
REMARK  102  A    between atoms: _238  and  _239
REMARK  103  A    between atoms: _239  and  _240
REMARK  104  A    between atoms: _245  and  _247
REMARK  105  A    between atoms: _247  and  _248
REMARK  106  A    between atoms: _247  and  _250
REMARK  107  A    between atoms: _250  and  _251
REMARK  108  A    between atoms: _251  and  _252
REMARK  109  A    between atoms: _252  and  _253
REMARK  110  A    between atoms: _253  and  _254
REMARK  111  A    between atoms: _259  and  _260
REMARK  112  A    between atoms: _265  and  _267
REMARK  113  A    between atoms: _267  and  _268
REMARK  114  A    between atoms: _270  and  _272
REMARK  115  A    between atoms: _272  and  _273
REMARK  116  A    between atoms: _272  and  _275
REMARK  117  A    between atoms: _278  and  _280
REMARK  118  A    between atoms: _280  and  _281
REMARK  119  A    between atoms: _280  and  _283
REMARK  120  A    between atoms: _283  and  _284
REMARK  121  A    between atoms: _289  and  _290
REMARK                            x       y       z     vdW  Elec       q    Type
REMARK                         _______ _______ _______ _____ _____    ______ ____
ROOT
ATOM      1  O   HOH     1      49.209  24.999  53.872  0.00  0.00    +0.000 OA
ENDROOT
TORSDOF 0
