REMARK  Name = ../refined-set-2016/3t5u/3t5u_pocket.pdb
REMARK  149 active torsions:
REMARK  status: ('A' for Active; 'I' for Inactive)
REMARK    1  A    between atoms: _1  and  _3
REMARK    2  A    between atoms: _3  and  _4
REMARK    3  A    between atoms: _3  and  _6
REMARK    4  A    between atoms: _6  and  _7
REMARK    5  A    between atoms: _17  and  _19
REMARK    6  A    between atoms: _19  and  _20
REMARK    7  A    between atoms: _19  and  _22
REMARK    8  A    between atoms: _22  and  _23
REMARK    9  A    between atoms: _28  and  _29
REMARK   10  A    between atoms: _31  and  _33
REMARK   11  A    between atoms: _33  and  _34
REMARK   12  A    between atoms: _33  and  _36
REMARK   13  A    between atoms: _36  and  _37
REMARK   14  A    between atoms: _47  and  _49
REMARK   15  A    between atoms: _49  and  _50
REMARK   16  A    between atoms: _49  and  _52
REMARK   17  A    between atoms: _52  and  _53
REMARK   18  A    between atoms: _56  and  _57
REMARK   19  A    between atoms: _62  and  _64
REMARK   20  A    between atoms: _64  and  _65
REMARK   21  A    between atoms: _64  and  _67
REMARK   22  A    between atoms: _67  and  _68
REMARK   23  A    between atoms: _73  and  _75
REMARK   24  A    between atoms: _75  and  _76
REMARK   25  A    between atoms: _79  and  _81
REMARK   26  A    between atoms: _81  and  _82
REMARK   27  A    between atoms: _81  and  _84
REMARK   28  A    between atoms: _84  and  _85
REMARK   29  A    between atoms: _90  and  _92
REMARK   30  A    between atoms: _92  and  _93
REMARK   31  A    between atoms: _92  and  _95
REMARK   32  A    between atoms: _95  and  _96
REMARK   33  A    between atoms: _99  and  _101
REMARK   34  A    between atoms: _101  and  _102
REMARK   35  A    between atoms: _101  and  _104
REMARK   36  A    between atoms: _104  and  _105
REMARK   37  A    between atoms: _105  and  _106
REMARK   38  A    between atoms: _111  and  _113
REMARK   39  A    between atoms: _113  and  _114
REMARK   40  A    between atoms: _113  and  _116
REMARK   41  A    between atoms: _116  and  _117
REMARK   42  A    between atoms: _123  and  _125
REMARK   43  A    between atoms: _136  and  _139
REMARK   44  A    between atoms: _139  and  _140
REMARK   45  A    between atoms: _148  and  _149
REMARK   46  A    between atoms: _157  and  _159
REMARK   47  A    between atoms: _159  and  _160
REMARK   48  A    between atoms: _159  and  _162
REMARK   49  A    between atoms: _162  and  _163
REMARK   50  A    between atoms: _163  and  _164
REMARK   51  A    between atoms: _167  and  _169
REMARK   52  A    between atoms: _169  and  _170
REMARK   53  A    between atoms: _169  and  _172
REMARK   54  A    between atoms: _172  and  _173
REMARK   55  A    between atoms: _178  and  _180
REMARK   56  A    between atoms: _180  and  _181
REMARK   57  A    between atoms: _180  and  _183
REMARK   58  A    between atoms: _183  and  _184
REMARK   59  A    between atoms: _184  and  _185
REMARK   60  A    between atoms: _188  and  _190
REMARK   61  A    between atoms: _190  and  _191
REMARK   62  A    between atoms: _190  and  _193
REMARK   63  A    between atoms: _193  and  _194
REMARK   64  A    between atoms: _197  and  _199
REMARK   65  A    between atoms: _199  and  _200
REMARK   66  A    between atoms: _199  and  _202
REMARK   67  A    between atoms: _202  and  _203
REMARK   68  A    between atoms: _204  and  ZN_424
REMARK   69  A    between atoms: _208  and  _210
REMARK   70  A    between atoms: _210  and  _211
REMARK   71  A    between atoms: _210  and  _213
REMARK   72  A    between atoms: _213  and  _214
REMARK   73  A    between atoms: _217  and  _219
REMARK   74  A    between atoms: _219  and  _220
REMARK   75  A    between atoms: _219  and  _222
REMARK   76  A    between atoms: _225  and  _227
REMARK   77  A    between atoms: _227  and  _228
REMARK   78  A    between atoms: _227  and  _230
REMARK   79  A    between atoms: _230  and  _231
REMARK   80  A    between atoms: _236  and  _238
REMARK   81  A    between atoms: _238  and  _239
REMARK   82  A    between atoms: _238  and  _241
REMARK   83  A    between atoms: _241  and  _242
REMARK   84  A    between atoms: _248  and  _250
REMARK   85  A    between atoms: _250  and  _251
REMARK   86  A    between atoms: _250  and  _253
REMARK   87  A    between atoms: _256  and  _258
REMARK   88  A    between atoms: _258  and  _259
REMARK   89  A    between atoms: _258  and  _261
REMARK   90  A    between atoms: _261  and  _262
REMARK   91  A    between atoms: _265  and  _267
REMARK   92  A    between atoms: _267  and  _268
REMARK   93  A    between atoms: _271  and  _273
REMARK   94  A    between atoms: _273  and  _274
REMARK   95  A    between atoms: _273  and  _276
REMARK   96  A    between atoms: _279  and  _281
REMARK   97  A    between atoms: _281  and  _282
REMARK   98  A    between atoms: _281  and  _284
REMARK   99  A    between atoms: _284  and  _285
REMARK  100  A    between atoms: _288  and  _290
REMARK  101  A    between atoms: _290  and  _291
REMARK  102  A    between atoms: _293  and  _295
REMARK  103  A    between atoms: _295  and  _296
REMARK  104  A    between atoms: _298  and  _300
REMARK  105  A    between atoms: _300  and  _301
REMARK  106  A    between atoms: _300  and  _303
REMARK  107  A    between atoms: _303  and  _304
REMARK  108  A    between atoms: _306  and  _308
REMARK  109  A    between atoms: _308  and  _309
REMARK  110  A    between atoms: _308  and  _311
REMARK  111  A    between atoms: _311  and  _312
REMARK  112  A    between atoms: _315  and  _317
REMARK  113  A    between atoms: _317  and  _318
REMARK  114  A    between atoms: _317  and  _320
REMARK  115  A    between atoms: _320  and  _321
REMARK  116  A    between atoms: _324  and  _326
REMARK  117  A    between atoms: _326  and  _327
REMARK  118  A    between atoms: _326  and  _329
REMARK  119  A    between atoms: _329  and  _330
REMARK  120  A    between atoms: _334  and  _335
REMARK  121  A    between atoms: _341  and  _342
REMARK  122  A    between atoms: _347  and  _349
REMARK  123  A    between atoms: _349  and  _350
REMARK  124  A    between atoms: _349  and  _352
REMARK  125  A    between atoms: _352  and  _353
REMARK  126  A    between atoms: _356  and  _358
REMARK  127  A    between atoms: _358  and  _359
REMARK  128  A    between atoms: _358  and  _361
REMARK  129  A    between atoms: _361  and  _362
REMARK  130  A    between atoms: _365  and  _367
REMARK  131  A    between atoms: _367  and  _368
REMARK  132  A    between atoms: _367  and  _370
REMARK  133  A    between atoms: _372  and  _374
REMARK  134  A    between atoms: _374  and  _375
REMARK  135  A    between atoms: _374  and  _377
REMARK  136  A    between atoms: _380  and  _382
REMARK  137  A    between atoms: _382  and  _383
REMARK  138  A    between atoms: _382  and  _385
REMARK  139  A    between atoms: _385  and  _386
REMARK  140  A    between atoms: _396  and  _398
REMARK  141  A    between atoms: _398  and  _399
REMARK  142  A    between atoms: _398  and  _401
REMARK  143  A    between atoms: _401  and  _402
REMARK  144  A    between atoms: _407  and  _409
REMARK  145  A    between atoms: _409  and  _410
REMARK  146  A    between atoms: _409  and  _412
REMARK  147  A    between atoms: _412  and  _413
REMARK  148  A    between atoms: _413  and  _414
REMARK  149  A    between atoms: _414  and  _415
REMARK                            x       y       z     vdW  Elec       q    Type
REMARK                         _______ _______ _______ _____ _____    ______ ____
ROOT
ATOM      1  CG  TRP A   1       5.496   0.128  11.976  0.00  0.00    -0.002 A 
ATOM      2  CD2 TRP A   1       4.154  -0.375  11.976  0.00  0.00    +0.013 A 
ATOM      3  CE3 TRP A   1       3.583  -1.620  12.275  0.00  0.00    +0.001 A 
ATOM      4  CZ3 TRP A   1       2.201  -1.764  12.170  0.00  0.00    +0.000 A 
ATOM      5  CH2 TRP A   1       1.388  -0.689  11.776  0.00  0.00    +0.001 A 
ATOM      6  CZ2 TRP A   1       1.923   0.540  11.477  0.00  0.00    +0.017 A 
ATOM      7  CE2 TRP A   1       3.310   0.686  11.581  0.00  0.00    +0.056 A 
ATOM      8  NE1 TRP A   1       4.105   1.779  11.348  0.00  0.00    -0.352 N 
ATOM      9  HE1 TRP A   1       3.771   2.715  11.042  0.00  0.00    +0.166 HD
ATOM     10  CD1 TRP A   1       5.416   1.435  11.585  0.00  0.00    +0.068 A 
ENDROOT
BRANCH   1  11
ATOM     11  CB  TRP A   1       6.736  -0.634  12.349  0.00  0.00    +0.053 C 
BRANCH  11  12
ATOM     12  CA  TRP A   1       7.455  -1.307  11.174  0.00  0.00    +0.137 C 
BRANCH  12  13
ATOM     13  N   TRP A   1       8.109  -0.317  10.331  0.00  0.00    -0.239 NA
ATOM     14  H   TRP A   1       8.012   0.693  10.558  0.00  0.00    +0.142 HD
ENDBRANCH  12  13
BRANCH  12  15
ATOM     15  C   TRP A   1       6.463  -2.173  10.410  0.00  0.00    +0.224 C 
ATOM     16  O   TRP A   1       5.871  -1.742   9.421  0.00  0.00    -0.287 OA
ENDBRANCH  12  15
ENDBRANCH  11  12
ENDBRANCH   1  11
TORSDOF 4
REMARK  Name = ../refined-set-2016/3t5u/3t5u_pocket.pdb
REMARK  149 active torsions:
REMARK  status: ('A' for Active; 'I' for Inactive)
REMARK    1  A    between atoms: _1  and  _3
REMARK    2  A    between atoms: _3  and  _4
REMARK    3  A    between atoms: _3  and  _6
REMARK    4  A    between atoms: _6  and  _7
REMARK    5  A    between atoms: _17  and  _19
REMARK    6  A    between atoms: _19  and  _20
REMARK    7  A    between atoms: _19  and  _22
REMARK    8  A    between atoms: _22  and  _23
REMARK    9  A    between atoms: _28  and  _29
REMARK   10  A    between atoms: _31  and  _33
REMARK   11  A    between atoms: _33  and  _34
REMARK   12  A    between atoms: _33  and  _36
REMARK   13  A    between atoms: _36  and  _37
REMARK   14  A    between atoms: _47  and  _49
REMARK   15  A    between atoms: _49  and  _50
REMARK   16  A    between atoms: _49  and  _52
REMARK   17  A    between atoms: _52  and  _53
REMARK   18  A    between atoms: _56  and  _57
REMARK   19  A    between atoms: _62  and  _64
REMARK   20  A    between atoms: _64  and  _65
REMARK   21  A    between atoms: _64  and  _67
REMARK   22  A    between atoms: _67  and  _68
REMARK   23  A    between atoms: _73  and  _75
REMARK   24  A    between atoms: _75  and  _76
REMARK   25  A    between atoms: _79  and  _81
REMARK   26  A    between atoms: _81  and  _82
REMARK   27  A    between atoms: _81  and  _84
REMARK   28  A    between atoms: _84  and  _85
REMARK   29  A    between atoms: _90  and  _92
REMARK   30  A    between atoms: _92  and  _93
REMARK   31  A    between atoms: _92  and  _95
REMARK   32  A    between atoms: _95  and  _96
REMARK   33  A    between atoms: _99  and  _101
REMARK   34  A    between atoms: _101  and  _102
REMARK   35  A    between atoms: _101  and  _104
REMARK   36  A    between atoms: _104  and  _105
REMARK   37  A    between atoms: _105  and  _106
REMARK   38  A    between atoms: _111  and  _113
REMARK   39  A    between atoms: _113  and  _114
REMARK   40  A    between atoms: _113  and  _116
REMARK   41  A    between atoms: _116  and  _117
REMARK   42  A    between atoms: _123  and  _125
REMARK   43  A    between atoms: _136  and  _139
REMARK   44  A    between atoms: _139  and  _140
REMARK   45  A    between atoms: _148  and  _149
REMARK   46  A    between atoms: _157  and  _159
REMARK   47  A    between atoms: _159  and  _160
REMARK   48  A    between atoms: _159  and  _162
REMARK   49  A    between atoms: _162  and  _163
REMARK   50  A    between atoms: _163  and  _164
REMARK   51  A    between atoms: _167  and  _169
REMARK   52  A    between atoms: _169  and  _170
REMARK   53  A    between atoms: _169  and  _172
REMARK   54  A    between atoms: _172  and  _173
REMARK   55  A    between atoms: _178  and  _180
REMARK   56  A    between atoms: _180  and  _181
REMARK   57  A    between atoms: _180  and  _183
REMARK   58  A    between atoms: _183  and  _184
REMARK   59  A    between atoms: _184  and  _185
REMARK   60  A    between atoms: _188  and  _190
REMARK   61  A    between atoms: _190  and  _191
REMARK   62  A    between atoms: _190  and  _193
REMARK   63  A    between atoms: _193  and  _194
REMARK   64  A    between atoms: _197  and  _199
REMARK   65  A    between atoms: _199  and  _200
REMARK   66  A    between atoms: _199  and  _202
REMARK   67  A    between atoms: _202  and  _203
REMARK   68  A    between atoms: _204  and  ZN_424
REMARK   69  A    between atoms: _208  and  _210
REMARK   70  A    between atoms: _210  and  _211
REMARK   71  A    between atoms: _210  and  _213
REMARK   72  A    between atoms: _213  and  _214
REMARK   73  A    between atoms: _217  and  _219
REMARK   74  A    between atoms: _219  and  _220
REMARK   75  A    between atoms: _219  and  _222
REMARK   76  A    between atoms: _225  and  _227
REMARK   77  A    between atoms: _227  and  _228
REMARK   78  A    between atoms: _227  and  _230
REMARK   79  A    between atoms: _230  and  _231
REMARK   80  A    between atoms: _236  and  _238
REMARK   81  A    between atoms: _238  and  _239
REMARK   82  A    between atoms: _238  and  _241
REMARK   83  A    between atoms: _241  and  _242
REMARK   84  A    between atoms: _248  and  _250
REMARK   85  A    between atoms: _250  and  _251
REMARK   86  A    between atoms: _250  and  _253
REMARK   87  A    between atoms: _256  and  _258
REMARK   88  A    between atoms: _258  and  _259
REMARK   89  A    between atoms: _258  and  _261
REMARK   90  A    between atoms: _261  and  _262
REMARK   91  A    between atoms: _265  and  _267
REMARK   92  A    between atoms: _267  and  _268
REMARK   93  A    between atoms: _271  and  _273
REMARK   94  A    between atoms: _273  and  _274
REMARK   95  A    between atoms: _273  and  _276
REMARK   96  A    between atoms: _279  and  _281
REMARK   97  A    between atoms: _281  and  _282
REMARK   98  A    between atoms: _281  and  _284
REMARK   99  A    between atoms: _284  and  _285
REMARK  100  A    between atoms: _288  and  _290
REMARK  101  A    between atoms: _290  and  _291
REMARK  102  A    between atoms: _293  and  _295
REMARK  103  A    between atoms: _295  and  _296
REMARK  104  A    between atoms: _298  and  _300
REMARK  105  A    between atoms: _300  and  _301
REMARK  106  A    between atoms: _300  and  _303
REMARK  107  A    between atoms: _303  and  _304
REMARK  108  A    between atoms: _306  and  _308
REMARK  109  A    between atoms: _308  and  _309
REMARK  110  A    between atoms: _308  and  _311
REMARK  111  A    between atoms: _311  and  _312
REMARK  112  A    between atoms: _315  and  _317
REMARK  113  A    between atoms: _317  and  _318
REMARK  114  A    between atoms: _317  and  _320
REMARK  115  A    between atoms: _320  and  _321
REMARK  116  A    between atoms: _324  and  _326
REMARK  117  A    between atoms: _326  and  _327
REMARK  118  A    between atoms: _326  and  _329
REMARK  119  A    between atoms: _329  and  _330
REMARK  120  A    between atoms: _334  and  _335
REMARK  121  A    between atoms: _341  and  _342
REMARK  122  A    between atoms: _347  and  _349
REMARK  123  A    between atoms: _349  and  _350
REMARK  124  A    between atoms: _349  and  _352
REMARK  125  A    between atoms: _352  and  _353
REMARK  126  A    between atoms: _356  and  _358
REMARK  127  A    between atoms: _358  and  _359
REMARK  128  A    between atoms: _358  and  _361
REMARK  129  A    between atoms: _361  and  _362
REMARK  130  A    between atoms: _365  and  _367
REMARK  131  A    between atoms: _367  and  _368
REMARK  132  A    between atoms: _367  and  _370
REMARK  133  A    between atoms: _372  and  _374
REMARK  134  A    between atoms: _374  and  _375
REMARK  135  A    between atoms: _374  and  _377
REMARK  136  A    between atoms: _380  and  _382
REMARK  137  A    between atoms: _382  and  _383
REMARK  138  A    between atoms: _382  and  _385
REMARK  139  A    between atoms: _385  and  _386
REMARK  140  A    between atoms: _396  and  _398
REMARK  141  A    between atoms: _398  and  _399
REMARK  142  A    between atoms: _398  and  _401
REMARK  143  A    between atoms: _401  and  _402
REMARK  144  A    between atoms: _407  and  _409
REMARK  145  A    between atoms: _409  and  _410
REMARK  146  A    between atoms: _409  and  _412
REMARK  147  A    between atoms: _412  and  _413
REMARK  148  A    between atoms: _413  and  _414
REMARK  149  A    between atoms: _414  and  _415
REMARK                            x       y       z     vdW  Elec       q    Type
REMARK                         _______ _______ _______ _____ _____    ______ ____
ROOT
ATOM      1  CG  TYR A   1       2.127  -7.153  11.779  0.00  0.00    -0.020 A 
ATOM      2  CD2 TYR A   1       1.725  -7.133  13.114  0.00  0.00    -0.001 A 
ATOM      3  CE2 TYR A   1       0.880  -6.133  13.598  0.00  0.00    +0.036 A 
ATOM      4  CZ  TYR A   1       0.427  -5.144  12.738  0.00  0.00    +0.134 A 
ATOM      5  CE1 TYR A   1       0.813  -5.145  11.407  0.00  0.00    +0.036 A 
ATOM      6  CD1 TYR A   1       1.660  -6.148  10.936  0.00  0.00    -0.001 A 
ENDROOT
BRANCH   4   7
ATOM      7  OH  TYR A   1      -0.413  -4.156  13.207  0.00  0.00    -0.506 OA
ATOM      8  HH  TYR A   1      -0.638  -3.537  12.468  0.00  0.00    +0.292 HD
ENDBRANCH   4   7
BRANCH   1   9
ATOM      9  CB  TYR A   1       3.074  -8.220  11.269  0.00  0.00    +0.051 C 
BRANCH   9  10
ATOM     10  CA  TYR A   1       4.550  -7.834  11.405  0.00  0.00    +0.137 C 
BRANCH  10  11
ATOM     11  N   TYR A   1       4.840  -6.653  10.605  0.00  0.00    -0.239 NA
ATOM     12  H   TYR A   1       4.867  -6.731   9.568  0.00  0.00    +0.142 HD
ENDBRANCH  10  11
BRANCH  10  13
ATOM     13  C   TYR A   1       5.442  -9.013  11.027  0.00  0.00    +0.224 C 
ATOM     14  O   TYR A   1       5.118 -10.166  11.309  0.00  0.00    -0.287 OA
ENDBRANCH  10  13
ENDBRANCH   9  10
ENDBRANCH   1   9
TORSDOF 5
REMARK  Name = ../refined-set-2016/3t5u/3t5u_pocket.pdb
REMARK  149 active torsions:
REMARK  status: ('A' for Active; 'I' for Inactive)
REMARK    1  A    between atoms: _1  and  _3
REMARK    2  A    between atoms: _3  and  _4
REMARK    3  A    between atoms: _3  and  _6
REMARK    4  A    between atoms: _6  and  _7
REMARK    5  A    between atoms: _17  and  _19
REMARK    6  A    between atoms: _19  and  _20
REMARK    7  A    between atoms: _19  and  _22
REMARK    8  A    between atoms: _22  and  _23
REMARK    9  A    between atoms: _28  and  _29
REMARK   10  A    between atoms: _31  and  _33
REMARK   11  A    between atoms: _33  and  _34
REMARK   12  A    between atoms: _33  and  _36
REMARK   13  A    between atoms: _36  and  _37
REMARK   14  A    between atoms: _47  and  _49
REMARK   15  A    between atoms: _49  and  _50
REMARK   16  A    between atoms: _49  and  _52
REMARK   17  A    between atoms: _52  and  _53
REMARK   18  A    between atoms: _56  and  _57
REMARK   19  A    between atoms: _62  and  _64
REMARK   20  A    between atoms: _64  and  _65
REMARK   21  A    between atoms: _64  and  _67
REMARK   22  A    between atoms: _67  and  _68
REMARK   23  A    between atoms: _73  and  _75
REMARK   24  A    between atoms: _75  and  _76
REMARK   25  A    between atoms: _79  and  _81
REMARK   26  A    between atoms: _81  and  _82
REMARK   27  A    between atoms: _81  and  _84
REMARK   28  A    between atoms: _84  and  _85
REMARK   29  A    between atoms: _90  and  _92
REMARK   30  A    between atoms: _92  and  _93
REMARK   31  A    between atoms: _92  and  _95
REMARK   32  A    between atoms: _95  and  _96
REMARK   33  A    between atoms: _99  and  _101
REMARK   34  A    between atoms: _101  and  _102
REMARK   35  A    between atoms: _101  and  _104
REMARK   36  A    between atoms: _104  and  _105
REMARK   37  A    between atoms: _105  and  _106
REMARK   38  A    between atoms: _111  and  _113
REMARK   39  A    between atoms: _113  and  _114
REMARK   40  A    between atoms: _113  and  _116
REMARK   41  A    between atoms: _116  and  _117
REMARK   42  A    between atoms: _123  and  _125
REMARK   43  A    between atoms: _136  and  _139
REMARK   44  A    between atoms: _139  and  _140
REMARK   45  A    between atoms: _148  and  _149
REMARK   46  A    between atoms: _157  and  _159
REMARK   47  A    between atoms: _159  and  _160
REMARK   48  A    between atoms: _159  and  _162
REMARK   49  A    between atoms: _162  and  _163
REMARK   50  A    between atoms: _163  and  _164
REMARK   51  A    between atoms: _167  and  _169
REMARK   52  A    between atoms: _169  and  _170
REMARK   53  A    between atoms: _169  and  _172
REMARK   54  A    between atoms: _172  and  _173
REMARK   55  A    between atoms: _178  and  _180
REMARK   56  A    between atoms: _180  and  _181
REMARK   57  A    between atoms: _180  and  _183
REMARK   58  A    between atoms: _183  and  _184
REMARK   59  A    between atoms: _184  and  _185
REMARK   60  A    between atoms: _188  and  _190
REMARK   61  A    between atoms: _190  and  _191
REMARK   62  A    between atoms: _190  and  _193
REMARK   63  A    between atoms: _193  and  _194
REMARK   64  A    between atoms: _197  and  _199
REMARK   65  A    between atoms: _199  and  _200
REMARK   66  A    between atoms: _199  and  _202
REMARK   67  A    between atoms: _202  and  _203
REMARK   68  A    between atoms: _204  and  ZN_424
REMARK   69  A    between atoms: _208  and  _210
REMARK   70  A    between atoms: _210  and  _211
REMARK   71  A    between atoms: _210  and  _213
REMARK   72  A    between atoms: _213  and  _214
REMARK   73  A    between atoms: _217  and  _219
REMARK   74  A    between atoms: _219  and  _220
REMARK   75  A    between atoms: _219  and  _222
REMARK   76  A    between atoms: _225  and  _227
REMARK   77  A    between atoms: _227  and  _228
REMARK   78  A    between atoms: _227  and  _230
REMARK   79  A    between atoms: _230  and  _231
REMARK   80  A    between atoms: _236  and  _238
REMARK   81  A    between atoms: _238  and  _239
REMARK   82  A    between atoms: _238  and  _241
REMARK   83  A    between atoms: _241  and  _242
REMARK   84  A    between atoms: _248  and  _250
REMARK   85  A    between atoms: _250  and  _251
REMARK   86  A    between atoms: _250  and  _253
REMARK   87  A    between atoms: _256  and  _258
REMARK   88  A    between atoms: _258  and  _259
REMARK   89  A    between atoms: _258  and  _261
REMARK   90  A    between atoms: _261  and  _262
REMARK   91  A    between atoms: _265  and  _267
REMARK   92  A    between atoms: _267  and  _268
REMARK   93  A    between atoms: _271  and  _273
REMARK   94  A    between atoms: _273  and  _274
REMARK   95  A    between atoms: _273  and  _276
REMARK   96  A    between atoms: _279  and  _281
REMARK   97  A    between atoms: _281  and  _282
REMARK   98  A    between atoms: _281  and  _284
REMARK   99  A    between atoms: _284  and  _285
REMARK  100  A    between atoms: _288  and  _290
REMARK  101  A    between atoms: _290  and  _291
REMARK  102  A    between atoms: _293  and  _295
REMARK  103  A    between atoms: _295  and  _296
REMARK  104  A    between atoms: _298  and  _300
REMARK  105  A    between atoms: _300  and  _301
REMARK  106  A    between atoms: _300  and  _303
REMARK  107  A    between atoms: _303  and  _304
REMARK  108  A    between atoms: _306  and  _308
REMARK  109  A    between atoms: _308  and  _309
REMARK  110  A    between atoms: _308  and  _311
REMARK  111  A    between atoms: _311  and  _312
REMARK  112  A    between atoms: _315  and  _317
REMARK  113  A    between atoms: _317  and  _318
REMARK  114  A    between atoms: _317  and  _320
REMARK  115  A    between atoms: _320  and  _321
REMARK  116  A    between atoms: _324  and  _326
REMARK  117  A    between atoms: _326  and  _327
REMARK  118  A    between atoms: _326  and  _329
REMARK  119  A    between atoms: _329  and  _330
REMARK  120  A    between atoms: _334  and  _335
REMARK  121  A    between atoms: _341  and  _342
REMARK  122  A    between atoms: _347  and  _349
REMARK  123  A    between atoms: _349  and  _350
REMARK  124  A    between atoms: _349  and  _352
REMARK  125  A    between atoms: _352  and  _353
REMARK  126  A    between atoms: _356  and  _358
REMARK  127  A    between atoms: _358  and  _359
REMARK  128  A    between atoms: _358  and  _361
REMARK  129  A    between atoms: _361  and  _362
REMARK  130  A    between atoms: _365  and  _367
REMARK  131  A    between atoms: _367  and  _368
REMARK  132  A    between atoms: _367  and  _370
REMARK  133  A    between atoms: _372  and  _374
REMARK  134  A    between atoms: _374  and  _375
REMARK  135  A    between atoms: _374  and  _377
REMARK  136  A    between atoms: _380  and  _382
REMARK  137  A    between atoms: _382  and  _383
REMARK  138  A    between atoms: _382  and  _385
REMARK  139  A    between atoms: _385  and  _386
REMARK  140  A    between atoms: _396  and  _398
REMARK  141  A    between atoms: _398  and  _399
REMARK  142  A    between atoms: _398  and  _401
REMARK  143  A    between atoms: _401  and  _402
REMARK  144  A    between atoms: _407  and  _409
REMARK  145  A    between atoms: _409  and  _410
REMARK  146  A    between atoms: _409  and  _412
REMARK  147  A    between atoms: _412  and  _413
REMARK  148  A    between atoms: _413  and  _414
REMARK  149  A    between atoms: _414  and  _415
REMARK                            x       y       z     vdW  Elec       q    Type
REMARK                         _______ _______ _______ _____ _____    ______ ____
ROOT
ATOM      1  CG  TRP A   1       6.529  -2.468  16.674  0.00  0.00    -0.002 A 
ATOM      2  CD2 TRP A   1       5.148  -2.838  16.689  0.00  0.00    +0.013 A 
ATOM      3  CE3 TRP A   1       4.124  -2.724  17.640  0.00  0.00    +0.001 A 
ATOM      4  CZ3 TRP A   1       2.855  -3.202  17.319  0.00  0.00    +0.000 A 
ATOM      5  CH2 TRP A   1       2.598  -3.790  16.068  0.00  0.00    +0.001 A 
ATOM      6  CZ2 TRP A   1       3.584  -3.914  15.117  0.00  0.00    +0.017 A 
ATOM      7  CE2 TRP A   1       4.856  -3.435  15.441  0.00  0.00    +0.056 A 
ATOM      8  NE1 TRP A   1       6.012  -3.426  14.701  0.00  0.00    -0.352 N 
ATOM      9  HE1 TRP A   1       6.116  -3.798  13.735  0.00  0.00    +0.166 HD
ATOM     10  CD1 TRP A   1       7.013  -2.843  15.449  0.00  0.00    +0.068 A 
ENDROOT
BRANCH   1  11
ATOM     11  CB  TRP A   1       7.277  -1.770  17.779  0.00  0.00    +0.053 C 
BRANCH  11  12
ATOM     12  CA  TRP A   1       8.801  -1.727  17.606  0.00  0.00    +0.137 C 
BRANCH  12  13
ATOM     13  N   TRP A   1       9.344  -3.082  17.547  0.00  0.00    -0.239 NA
ATOM     14  H   TRP A   1       8.690  -3.890  17.534  0.00  0.00    +0.142 HD
ENDBRANCH  12  13
BRANCH  12  15
ATOM     15  C   TRP A   1       9.382  -0.786  18.658  0.00  0.00    +0.224 C 
ATOM     16  O   TRP A   1       9.565   0.401  18.390  0.00  0.00    -0.287 OA
ENDBRANCH  12  15
ENDBRANCH  11  12
ENDBRANCH   1  11
TORSDOF 4
REMARK  Name = ../refined-set-2016/3t5u/3t5u_pocket.pdb
REMARK  149 active torsions:
REMARK  status: ('A' for Active; 'I' for Inactive)
REMARK    1  A    between atoms: _1  and  _3
REMARK    2  A    between atoms: _3  and  _4
REMARK    3  A    between atoms: _3  and  _6
REMARK    4  A    between atoms: _6  and  _7
REMARK    5  A    between atoms: _17  and  _19
REMARK    6  A    between atoms: _19  and  _20
REMARK    7  A    between atoms: _19  and  _22
REMARK    8  A    between atoms: _22  and  _23
REMARK    9  A    between atoms: _28  and  _29
REMARK   10  A    between atoms: _31  and  _33
REMARK   11  A    between atoms: _33  and  _34
REMARK   12  A    between atoms: _33  and  _36
REMARK   13  A    between atoms: _36  and  _37
REMARK   14  A    between atoms: _47  and  _49
REMARK   15  A    between atoms: _49  and  _50
REMARK   16  A    between atoms: _49  and  _52
REMARK   17  A    between atoms: _52  and  _53
REMARK   18  A    between atoms: _56  and  _57
REMARK   19  A    between atoms: _62  and  _64
REMARK   20  A    between atoms: _64  and  _65
REMARK   21  A    between atoms: _64  and  _67
REMARK   22  A    between atoms: _67  and  _68
REMARK   23  A    between atoms: _73  and  _75
REMARK   24  A    between atoms: _75  and  _76
REMARK   25  A    between atoms: _79  and  _81
REMARK   26  A    between atoms: _81  and  _82
REMARK   27  A    between atoms: _81  and  _84
REMARK   28  A    between atoms: _84  and  _85
REMARK   29  A    between atoms: _90  and  _92
REMARK   30  A    between atoms: _92  and  _93
REMARK   31  A    between atoms: _92  and  _95
REMARK   32  A    between atoms: _95  and  _96
REMARK   33  A    between atoms: _99  and  _101
REMARK   34  A    between atoms: _101  and  _102
REMARK   35  A    between atoms: _101  and  _104
REMARK   36  A    between atoms: _104  and  _105
REMARK   37  A    between atoms: _105  and  _106
REMARK   38  A    between atoms: _111  and  _113
REMARK   39  A    between atoms: _113  and  _114
REMARK   40  A    between atoms: _113  and  _116
REMARK   41  A    between atoms: _116  and  _117
REMARK   42  A    between atoms: _123  and  _125
REMARK   43  A    between atoms: _136  and  _139
REMARK   44  A    between atoms: _139  and  _140
REMARK   45  A    between atoms: _148  and  _149
REMARK   46  A    between atoms: _157  and  _159
REMARK   47  A    between atoms: _159  and  _160
REMARK   48  A    between atoms: _159  and  _162
REMARK   49  A    between atoms: _162  and  _163
REMARK   50  A    between atoms: _163  and  _164
REMARK   51  A    between atoms: _167  and  _169
REMARK   52  A    between atoms: _169  and  _170
REMARK   53  A    between atoms: _169  and  _172
REMARK   54  A    between atoms: _172  and  _173
REMARK   55  A    between atoms: _178  and  _180
REMARK   56  A    between atoms: _180  and  _181
REMARK   57  A    between atoms: _180  and  _183
REMARK   58  A    between atoms: _183  and  _184
REMARK   59  A    between atoms: _184  and  _185
REMARK   60  A    between atoms: _188  and  _190
REMARK   61  A    between atoms: _190  and  _191
REMARK   62  A    between atoms: _190  and  _193
REMARK   63  A    between atoms: _193  and  _194
REMARK   64  A    between atoms: _197  and  _199
REMARK   65  A    between atoms: _199  and  _200
REMARK   66  A    between atoms: _199  and  _202
REMARK   67  A    between atoms: _202  and  _203
REMARK   68  A    between atoms: _204  and  ZN_424
REMARK   69  A    between atoms: _208  and  _210
REMARK   70  A    between atoms: _210  and  _211
REMARK   71  A    between atoms: _210  and  _213
REMARK   72  A    between atoms: _213  and  _214
REMARK   73  A    between atoms: _217  and  _219
REMARK   74  A    between atoms: _219  and  _220
REMARK   75  A    between atoms: _219  and  _222
REMARK   76  A    between atoms: _225  and  _227
REMARK   77  A    between atoms: _227  and  _228
REMARK   78  A    between atoms: _227  and  _230
REMARK   79  A    between atoms: _230  and  _231
REMARK   80  A    between atoms: _236  and  _238
REMARK   81  A    between atoms: _238  and  _239
REMARK   82  A    between atoms: _238  and  _241
REMARK   83  A    between atoms: _241  and  _242
REMARK   84  A    between atoms: _248  and  _250
REMARK   85  A    between atoms: _250  and  _251
REMARK   86  A    between atoms: _250  and  _253
REMARK   87  A    between atoms: _256  and  _258
REMARK   88  A    between atoms: _258  and  _259
REMARK   89  A    between atoms: _258  and  _261
REMARK   90  A    between atoms: _261  and  _262
REMARK   91  A    between atoms: _265  and  _267
REMARK   92  A    between atoms: _267  and  _268
REMARK   93  A    between atoms: _271  and  _273
REMARK   94  A    between atoms: _273  and  _274
REMARK   95  A    between atoms: _273  and  _276
REMARK   96  A    between atoms: _279  and  _281
REMARK   97  A    between atoms: _281  and  _282
REMARK   98  A    between atoms: _281  and  _284
REMARK   99  A    between atoms: _284  and  _285
REMARK  100  A    between atoms: _288  and  _290
REMARK  101  A    between atoms: _290  and  _291
REMARK  102  A    between atoms: _293  and  _295
REMARK  103  A    between atoms: _295  and  _296
REMARK  104  A    between atoms: _298  and  _300
REMARK  105  A    between atoms: _300  and  _301
REMARK  106  A    between atoms: _300  and  _303
REMARK  107  A    between atoms: _303  and  _304
REMARK  108  A    between atoms: _306  and  _308
REMARK  109  A    between atoms: _308  and  _309
REMARK  110  A    between atoms: _308  and  _311
REMARK  111  A    between atoms: _311  and  _312
REMARK  112  A    between atoms: _315  and  _317
REMARK  113  A    between atoms: _317  and  _318
REMARK  114  A    between atoms: _317  and  _320
REMARK  115  A    between atoms: _320  and  _321
REMARK  116  A    between atoms: _324  and  _326
REMARK  117  A    between atoms: _326  and  _327
REMARK  118  A    between atoms: _326  and  _329
REMARK  119  A    between atoms: _329  and  _330
REMARK  120  A    between atoms: _334  and  _335
REMARK  121  A    between atoms: _341  and  _342
REMARK  122  A    between atoms: _347  and  _349
REMARK  123  A    between atoms: _349  and  _350
REMARK  124  A    between atoms: _349  and  _352
REMARK  125  A    between atoms: _352  and  _353
REMARK  126  A    between atoms: _356  and  _358
REMARK  127  A    between atoms: _358  and  _359
REMARK  128  A    between atoms: _358  and  _361
REMARK  129  A    between atoms: _361  and  _362
REMARK  130  A    between atoms: _365  and  _367
REMARK  131  A    between atoms: _367  and  _368
REMARK  132  A    between atoms: _367  and  _370
REMARK  133  A    between atoms: _372  and  _374
REMARK  134  A    between atoms: _374  and  _375
REMARK  135  A    between atoms: _374  and  _377
REMARK  136  A    between atoms: _380  and  _382
REMARK  137  A    between atoms: _382  and  _383
REMARK  138  A    between atoms: _382  and  _385
REMARK  139  A    between atoms: _385  and  _386
REMARK  140  A    between atoms: _396  and  _398
REMARK  141  A    between atoms: _398  and  _399
REMARK  142  A    between atoms: _398  and  _401
REMARK  143  A    between atoms: _401  and  _402
REMARK  144  A    between atoms: _407  and  _409
REMARK  145  A    between atoms: _409  and  _410
REMARK  146  A    between atoms: _409  and  _412
REMARK  147  A    between atoms: _412  and  _413
REMARK  148  A    between atoms: _413  and  _414
REMARK  149  A    between atoms: _414  and  _415
REMARK                            x       y       z     vdW  Elec       q    Type
REMARK                         _______ _______ _______ _____ _____    ______ ____
ROOT
ATOM      1  C   SER A   1      -2.238  -3.079  23.133  0.00  0.00    +0.244 C 
ATOM      2  N   PRO A   2      -2.862  -4.240  22.896  0.00  0.00    -0.273 N 
ATOM      3  CA  PRO A   2      -4.019  -4.786  23.614  0.00  0.00    +0.140 C 
ATOM      4  CB  PRO A   2      -4.575  -5.797  22.621  0.00  0.00    +0.030 C 
ATOM      5  CG  PRO A   2      -3.295  -6.375  22.039  0.00  0.00    +0.024 C 
ATOM      6  CD  PRO A   2      -2.474  -5.123  21.781  0.00  0.00    +0.094 C 
ATOM      7  O   SER A   1      -1.278  -2.709  22.456  0.00  0.00    -0.273 OA
ENDROOT
BRANCH   3   8
ATOM      8  C   PRO A   2      -3.625  -5.452  24.932  0.00  0.00    +0.227 C 
ATOM      9  O   PRO A   2      -2.455  -5.463  25.313  0.00  0.00    -0.286 OA
ENDBRANCH   3   8
BRANCH   1  10
ATOM     10  CA  SER A   1      -2.771  -2.217  24.273  0.00  0.00    +0.175 C 
BRANCH  10  11
ATOM     11  N   SER A   1      -1.713  -1.329  24.736  0.00  0.00    -0.236 NA
ATOM     12  H   SER A   1      -1.243  -0.714  24.041  0.00  0.00    +0.142 HD
ENDBRANCH  10  11
BRANCH  10  13
ATOM     13  CB  SER A   1      -3.963  -1.399  23.772  0.00  0.00    +0.163 C 
BRANCH  13  14
ATOM     14  OG  SER A   1      -4.594  -0.703  24.833  0.00  0.00    -0.380 OA
ATOM     15  H   SER A   1      -4.918  -1.353  25.506  0.00  0.00    +0.211 HD
ENDBRANCH  13  14
ENDBRANCH  10  13
ENDBRANCH   1  10
TORSDOF 5
REMARK  Name = ../refined-set-2016/3t5u/3t5u_pocket.pdb
REMARK  149 active torsions:
REMARK  status: ('A' for Active; 'I' for Inactive)
REMARK    1  A    between atoms: _1  and  _3
REMARK    2  A    between atoms: _3  and  _4
REMARK    3  A    between atoms: _3  and  _6
REMARK    4  A    between atoms: _6  and  _7
REMARK    5  A    between atoms: _17  and  _19
REMARK    6  A    between atoms: _19  and  _20
REMARK    7  A    between atoms: _19  and  _22
REMARK    8  A    between atoms: _22  and  _23
REMARK    9  A    between atoms: _28  and  _29
REMARK   10  A    between atoms: _31  and  _33
REMARK   11  A    between atoms: _33  and  _34
REMARK   12  A    between atoms: _33  and  _36
REMARK   13  A    between atoms: _36  and  _37
REMARK   14  A    between atoms: _47  and  _49
REMARK   15  A    between atoms: _49  and  _50
REMARK   16  A    between atoms: _49  and  _52
REMARK   17  A    between atoms: _52  and  _53
REMARK   18  A    between atoms: _56  and  _57
REMARK   19  A    between atoms: _62  and  _64
REMARK   20  A    between atoms: _64  and  _65
REMARK   21  A    between atoms: _64  and  _67
REMARK   22  A    between atoms: _67  and  _68
REMARK   23  A    between atoms: _73  and  _75
REMARK   24  A    between atoms: _75  and  _76
REMARK   25  A    between atoms: _79  and  _81
REMARK   26  A    between atoms: _81  and  _82
REMARK   27  A    between atoms: _81  and  _84
REMARK   28  A    between atoms: _84  and  _85
REMARK   29  A    between atoms: _90  and  _92
REMARK   30  A    between atoms: _92  and  _93
REMARK   31  A    between atoms: _92  and  _95
REMARK   32  A    between atoms: _95  and  _96
REMARK   33  A    between atoms: _99  and  _101
REMARK   34  A    between atoms: _101  and  _102
REMARK   35  A    between atoms: _101  and  _104
REMARK   36  A    between atoms: _104  and  _105
REMARK   37  A    between atoms: _105  and  _106
REMARK   38  A    between atoms: _111  and  _113
REMARK   39  A    between atoms: _113  and  _114
REMARK   40  A    between atoms: _113  and  _116
REMARK   41  A    between atoms: _116  and  _117
REMARK   42  A    between atoms: _123  and  _125
REMARK   43  A    between atoms: _136  and  _139
REMARK   44  A    between atoms: _139  and  _140
REMARK   45  A    between atoms: _148  and  _149
REMARK   46  A    between atoms: _157  and  _159
REMARK   47  A    between atoms: _159  and  _160
REMARK   48  A    between atoms: _159  and  _162
REMARK   49  A    between atoms: _162  and  _163
REMARK   50  A    between atoms: _163  and  _164
REMARK   51  A    between atoms: _167  and  _169
REMARK   52  A    between atoms: _169  and  _170
REMARK   53  A    between atoms: _169  and  _172
REMARK   54  A    between atoms: _172  and  _173
REMARK   55  A    between atoms: _178  and  _180
REMARK   56  A    between atoms: _180  and  _181
REMARK   57  A    between atoms: _180  and  _183
REMARK   58  A    between atoms: _183  and  _184
REMARK   59  A    between atoms: _184  and  _185
REMARK   60  A    between atoms: _188  and  _190
REMARK   61  A    between atoms: _190  and  _191
REMARK   62  A    between atoms: _190  and  _193
REMARK   63  A    between atoms: _193  and  _194
REMARK   64  A    between atoms: _197  and  _199
REMARK   65  A    between atoms: _199  and  _200
REMARK   66  A    between atoms: _199  and  _202
REMARK   67  A    between atoms: _202  and  _203
REMARK   68  A    between atoms: _204  and  ZN_424
REMARK   69  A    between atoms: _208  and  _210
REMARK   70  A    between atoms: _210  and  _211
REMARK   71  A    between atoms: _210  and  _213
REMARK   72  A    between atoms: _213  and  _214
REMARK   73  A    between atoms: _217  and  _219
REMARK   74  A    between atoms: _219  and  _220
REMARK   75  A    between atoms: _219  and  _222
REMARK   76  A    between atoms: _225  and  _227
REMARK   77  A    between atoms: _227  and  _228
REMARK   78  A    between atoms: _227  and  _230
REMARK   79  A    between atoms: _230  and  _231
REMARK   80  A    between atoms: _236  and  _238
REMARK   81  A    between atoms: _238  and  _239
REMARK   82  A    between atoms: _238  and  _241
REMARK   83  A    between atoms: _241  and  _242
REMARK   84  A    between atoms: _248  and  _250
REMARK   85  A    between atoms: _250  and  _251
REMARK   86  A    between atoms: _250  and  _253
REMARK   87  A    between atoms: _256  and  _258
REMARK   88  A    between atoms: _258  and  _259
REMARK   89  A    between atoms: _258  and  _261
REMARK   90  A    between atoms: _261  and  _262
REMARK   91  A    between atoms: _265  and  _267
REMARK   92  A    between atoms: _267  and  _268
REMARK   93  A    between atoms: _271  and  _273
REMARK   94  A    between atoms: _273  and  _274
REMARK   95  A    between atoms: _273  and  _276
REMARK   96  A    between atoms: _279  and  _281
REMARK   97  A    between atoms: _281  and  _282
REMARK   98  A    between atoms: _281  and  _284
REMARK   99  A    between atoms: _284  and  _285
REMARK  100  A    between atoms: _288  and  _290
REMARK  101  A    between atoms: _290  and  _291
REMARK  102  A    between atoms: _293  and  _295
REMARK  103  A    between atoms: _295  and  _296
REMARK  104  A    between atoms: _298  and  _300
REMARK  105  A    between atoms: _300  and  _301
REMARK  106  A    between atoms: _300  and  _303
REMARK  107  A    between atoms: _303  and  _304
REMARK  108  A    between atoms: _306  and  _308
REMARK  109  A    between atoms: _308  and  _309
REMARK  110  A    between atoms: _308  and  _311
REMARK  111  A    between atoms: _311  and  _312
REMARK  112  A    between atoms: _315  and  _317
REMARK  113  A    between atoms: _317  and  _318
REMARK  114  A    between atoms: _317  and  _320
REMARK  115  A    between atoms: _320  and  _321
REMARK  116  A    between atoms: _324  and  _326
REMARK  117  A    between atoms: _326  and  _327
REMARK  118  A    between atoms: _326  and  _329
REMARK  119  A    between atoms: _329  and  _330
REMARK  120  A    between atoms: _334  and  _335
REMARK  121  A    between atoms: _341  and  _342
REMARK  122  A    between atoms: _347  and  _349
REMARK  123  A    between atoms: _349  and  _350
REMARK  124  A    between atoms: _349  and  _352
REMARK  125  A    between atoms: _352  and  _353
REMARK  126  A    between atoms: _356  and  _358
REMARK  127  A    between atoms: _358  and  _359
REMARK  128  A    between atoms: _358  and  _361
REMARK  129  A    between atoms: _361  and  _362
REMARK  130  A    between atoms: _365  and  _367
REMARK  131  A    between atoms: _367  and  _368
REMARK  132  A    between atoms: _367  and  _370
REMARK  133  A    between atoms: _372  and  _374
REMARK  134  A    between atoms: _374  and  _375
REMARK  135  A    between atoms: _374  and  _377
REMARK  136  A    between atoms: _380  and  _382
REMARK  137  A    between atoms: _382  and  _383
REMARK  138  A    between atoms: _382  and  _385
REMARK  139  A    between atoms: _385  and  _386
REMARK  140  A    between atoms: _396  and  _398
REMARK  141  A    between atoms: _398  and  _399
REMARK  142  A    between atoms: _398  and  _401
REMARK  143  A    between atoms: _401  and  _402
REMARK  144  A    between atoms: _407  and  _409
REMARK  145  A    between atoms: _409  and  _410
REMARK  146  A    between atoms: _409  and  _412
REMARK  147  A    between atoms: _412  and  _413
REMARK  148  A    between atoms: _413  and  _414
REMARK  149  A    between atoms: _414  and  _415
REMARK                            x       y       z     vdW  Elec       q    Type
REMARK                         _______ _______ _______ _____ _____    ______ ____
ROOT
ATOM      1  CB  ASN A   1      -2.403   1.875   5.315  0.00  0.00    +0.110 C 
ENDROOT
BRANCH   1   2
ATOM      2  CG  ASN A   1      -2.838   0.984   6.461  0.00  0.00    +0.221 C 
ATOM      3  ND2 ASN A   1      -3.702   1.507   7.324  0.00  0.00    -0.329 N 
ATOM      4 HD21 ASN A   1      -4.026   0.948   8.139  0.00  0.00    +0.145 HD
ATOM      5 HD22 ASN A   1      -4.054   2.476   7.185  0.00  0.00    +0.145 HD
ATOM      6  OD1 ASN A   1      -2.392  -0.154   6.580  0.00  0.00    -0.275 OA
ENDBRANCH   1   2
BRANCH   1   7
ATOM      7  CA  ASN A   1      -2.057   1.082   4.049  0.00  0.00    +0.142 C 
BRANCH   7   8
ATOM      8  N   ASN A   1      -3.213   0.314   3.601  0.00  0.00    -0.239 NA
ATOM      9  H   ASN A   1      -3.823  -0.149   4.304  0.00  0.00    +0.142 HD
ENDBRANCH   7   8
BRANCH   7  10
ATOM     10  C   ASN A   1      -0.818   0.229   4.309  0.00  0.00    +0.225 C 
ATOM     11  O   ASN A   1       0.152   0.704   4.901  0.00  0.00    -0.287 OA
ENDBRANCH   7  10
ENDBRANCH   1   7
TORSDOF 4
REMARK  Name = ../refined-set-2016/3t5u/3t5u_pocket.pdb
REMARK  149 active torsions:
REMARK  status: ('A' for Active; 'I' for Inactive)
REMARK    1  A    between atoms: _1  and  _3
REMARK    2  A    between atoms: _3  and  _4
REMARK    3  A    between atoms: _3  and  _6
REMARK    4  A    between atoms: _6  and  _7
REMARK    5  A    between atoms: _17  and  _19
REMARK    6  A    between atoms: _19  and  _20
REMARK    7  A    between atoms: _19  and  _22
REMARK    8  A    between atoms: _22  and  _23
REMARK    9  A    between atoms: _28  and  _29
REMARK   10  A    between atoms: _31  and  _33
REMARK   11  A    between atoms: _33  and  _34
REMARK   12  A    between atoms: _33  and  _36
REMARK   13  A    between atoms: _36  and  _37
REMARK   14  A    between atoms: _47  and  _49
REMARK   15  A    between atoms: _49  and  _50
REMARK   16  A    between atoms: _49  and  _52
REMARK   17  A    between atoms: _52  and  _53
REMARK   18  A    between atoms: _56  and  _57
REMARK   19  A    between atoms: _62  and  _64
REMARK   20  A    between atoms: _64  and  _65
REMARK   21  A    between atoms: _64  and  _67
REMARK   22  A    between atoms: _67  and  _68
REMARK   23  A    between atoms: _73  and  _75
REMARK   24  A    between atoms: _75  and  _76
REMARK   25  A    between atoms: _79  and  _81
REMARK   26  A    between atoms: _81  and  _82
REMARK   27  A    between atoms: _81  and  _84
REMARK   28  A    between atoms: _84  and  _85
REMARK   29  A    between atoms: _90  and  _92
REMARK   30  A    between atoms: _92  and  _93
REMARK   31  A    between atoms: _92  and  _95
REMARK   32  A    between atoms: _95  and  _96
REMARK   33  A    between atoms: _99  and  _101
REMARK   34  A    between atoms: _101  and  _102
REMARK   35  A    between atoms: _101  and  _104
REMARK   36  A    between atoms: _104  and  _105
REMARK   37  A    between atoms: _105  and  _106
REMARK   38  A    between atoms: _111  and  _113
REMARK   39  A    between atoms: _113  and  _114
REMARK   40  A    between atoms: _113  and  _116
REMARK   41  A    between atoms: _116  and  _117
REMARK   42  A    between atoms: _123  and  _125
REMARK   43  A    between atoms: _136  and  _139
REMARK   44  A    between atoms: _139  and  _140
REMARK   45  A    between atoms: _148  and  _149
REMARK   46  A    between atoms: _157  and  _159
REMARK   47  A    between atoms: _159  and  _160
REMARK   48  A    between atoms: _159  and  _162
REMARK   49  A    between atoms: _162  and  _163
REMARK   50  A    between atoms: _163  and  _164
REMARK   51  A    between atoms: _167  and  _169
REMARK   52  A    between atoms: _169  and  _170
REMARK   53  A    between atoms: _169  and  _172
REMARK   54  A    between atoms: _172  and  _173
REMARK   55  A    between atoms: _178  and  _180
REMARK   56  A    between atoms: _180  and  _181
REMARK   57  A    between atoms: _180  and  _183
REMARK   58  A    between atoms: _183  and  _184
REMARK   59  A    between atoms: _184  and  _185
REMARK   60  A    between atoms: _188  and  _190
REMARK   61  A    between atoms: _190  and  _191
REMARK   62  A    between atoms: _190  and  _193
REMARK   63  A    between atoms: _193  and  _194
REMARK   64  A    between atoms: _197  and  _199
REMARK   65  A    between atoms: _199  and  _200
REMARK   66  A    between atoms: _199  and  _202
REMARK   67  A    between atoms: _202  and  _203
REMARK   68  A    between atoms: _204  and  ZN_424
REMARK   69  A    between atoms: _208  and  _210
REMARK   70  A    between atoms: _210  and  _211
REMARK   71  A    between atoms: _210  and  _213
REMARK   72  A    between atoms: _213  and  _214
REMARK   73  A    between atoms: _217  and  _219
REMARK   74  A    between atoms: _219  and  _220
REMARK   75  A    between atoms: _219  and  _222
REMARK   76  A    between atoms: _225  and  _227
REMARK   77  A    between atoms: _227  and  _228
REMARK   78  A    between atoms: _227  and  _230
REMARK   79  A    between atoms: _230  and  _231
REMARK   80  A    between atoms: _236  and  _238
REMARK   81  A    between atoms: _238  and  _239
REMARK   82  A    between atoms: _238  and  _241
REMARK   83  A    between atoms: _241  and  _242
REMARK   84  A    between atoms: _248  and  _250
REMARK   85  A    between atoms: _250  and  _251
REMARK   86  A    between atoms: _250  and  _253
REMARK   87  A    between atoms: _256  and  _258
REMARK   88  A    between atoms: _258  and  _259
REMARK   89  A    between atoms: _258  and  _261
REMARK   90  A    between atoms: _261  and  _262
REMARK   91  A    between atoms: _265  and  _267
REMARK   92  A    between atoms: _267  and  _268
REMARK   93  A    between atoms: _271  and  _273
REMARK   94  A    between atoms: _273  and  _274
REMARK   95  A    between atoms: _273  and  _276
REMARK   96  A    between atoms: _279  and  _281
REMARK   97  A    between atoms: _281  and  _282
REMARK   98  A    between atoms: _281  and  _284
REMARK   99  A    between atoms: _284  and  _285
REMARK  100  A    between atoms: _288  and  _290
REMARK  101  A    between atoms: _290  and  _291
REMARK  102  A    between atoms: _293  and  _295
REMARK  103  A    between atoms: _295  and  _296
REMARK  104  A    between atoms: _298  and  _300
REMARK  105  A    between atoms: _300  and  _301
REMARK  106  A    between atoms: _300  and  _303
REMARK  107  A    between atoms: _303  and  _304
REMARK  108  A    between atoms: _306  and  _308
REMARK  109  A    between atoms: _308  and  _309
REMARK  110  A    between atoms: _308  and  _311
REMARK  111  A    between atoms: _311  and  _312
REMARK  112  A    between atoms: _315  and  _317
REMARK  113  A    between atoms: _317  and  _318
REMARK  114  A    between atoms: _317  and  _320
REMARK  115  A    between atoms: _320  and  _321
REMARK  116  A    between atoms: _324  and  _326
REMARK  117  A    between atoms: _326  and  _327
REMARK  118  A    between atoms: _326  and  _329
REMARK  119  A    between atoms: _329  and  _330
REMARK  120  A    between atoms: _334  and  _335
REMARK  121  A    between atoms: _341  and  _342
REMARK  122  A    between atoms: _347  and  _349
REMARK  123  A    between atoms: _349  and  _350
REMARK  124  A    between atoms: _349  and  _352
REMARK  125  A    between atoms: _352  and  _353
REMARK  126  A    between atoms: _356  and  _358
REMARK  127  A    between atoms: _358  and  _359
REMARK  128  A    between atoms: _358  and  _361
REMARK  129  A    between atoms: _361  and  _362
REMARK  130  A    between atoms: _365  and  _367
REMARK  131  A    between atoms: _367  and  _368
REMARK  132  A    between atoms: _367  and  _370
REMARK  133  A    between atoms: _372  and  _374
REMARK  134  A    between atoms: _374  and  _375
REMARK  135  A    between atoms: _374  and  _377
REMARK  136  A    between atoms: _380  and  _382
REMARK  137  A    between atoms: _382  and  _383
REMARK  138  A    between atoms: _382  and  _385
REMARK  139  A    between atoms: _385  and  _386
REMARK  140  A    between atoms: _396  and  _398
REMARK  141  A    between atoms: _398  and  _399
REMARK  142  A    between atoms: _398  and  _401
REMARK  143  A    between atoms: _401  and  _402
REMARK  144  A    between atoms: _407  and  _409
REMARK  145  A    between atoms: _409  and  _410
REMARK  146  A    between atoms: _409  and  _412
REMARK  147  A    between atoms: _412  and  _413
REMARK  148  A    between atoms: _413  and  _414
REMARK  149  A    between atoms: _414  and  _415
REMARK                            x       y       z     vdW  Elec       q    Type
REMARK                         _______ _______ _______ _____ _____    ______ ____
ROOT
ATOM      1  CA  ALA A   1      -4.441  -3.425   7.213  0.00  0.00    +0.133 C 
ATOM      2  CB  ALA A   1      -5.041  -3.217   8.598  0.00  0.00    +0.027 C 
ENDROOT
BRANCH   1   3
ATOM      3  N   ALA A   1      -3.062  -2.952   7.188  0.00  0.00    -0.239 NA
ATOM      4  H   ALA A   1      -2.857  -2.064   6.686  0.00  0.00    +0.142 HD
ENDBRANCH   1   3
BRANCH   1   5
ATOM      5  C   ALA A   1      -5.164  -2.558   6.187  0.00  0.00    +0.224 C 
ATOM      6  O   ALA A   1      -4.518  -1.915   5.361  0.00  0.00    -0.287 OA
ENDBRANCH   1   5
TORSDOF 2
REMARK  Name = ../refined-set-2016/3t5u/3t5u_pocket.pdb
REMARK  149 active torsions:
REMARK  status: ('A' for Active; 'I' for Inactive)
REMARK    1  A    between atoms: _1  and  _3
REMARK    2  A    between atoms: _3  and  _4
REMARK    3  A    between atoms: _3  and  _6
REMARK    4  A    between atoms: _6  and  _7
REMARK    5  A    between atoms: _17  and  _19
REMARK    6  A    between atoms: _19  and  _20
REMARK    7  A    between atoms: _19  and  _22
REMARK    8  A    between atoms: _22  and  _23
REMARK    9  A    between atoms: _28  and  _29
REMARK   10  A    between atoms: _31  and  _33
REMARK   11  A    between atoms: _33  and  _34
REMARK   12  A    between atoms: _33  and  _36
REMARK   13  A    between atoms: _36  and  _37
REMARK   14  A    between atoms: _47  and  _49
REMARK   15  A    between atoms: _49  and  _50
REMARK   16  A    between atoms: _49  and  _52
REMARK   17  A    between atoms: _52  and  _53
REMARK   18  A    between atoms: _56  and  _57
REMARK   19  A    between atoms: _62  and  _64
REMARK   20  A    between atoms: _64  and  _65
REMARK   21  A    between atoms: _64  and  _67
REMARK   22  A    between atoms: _67  and  _68
REMARK   23  A    between atoms: _73  and  _75
REMARK   24  A    between atoms: _75  and  _76
REMARK   25  A    between atoms: _79  and  _81
REMARK   26  A    between atoms: _81  and  _82
REMARK   27  A    between atoms: _81  and  _84
REMARK   28  A    between atoms: _84  and  _85
REMARK   29  A    between atoms: _90  and  _92
REMARK   30  A    between atoms: _92  and  _93
REMARK   31  A    between atoms: _92  and  _95
REMARK   32  A    between atoms: _95  and  _96
REMARK   33  A    between atoms: _99  and  _101
REMARK   34  A    between atoms: _101  and  _102
REMARK   35  A    between atoms: _101  and  _104
REMARK   36  A    between atoms: _104  and  _105
REMARK   37  A    between atoms: _105  and  _106
REMARK   38  A    between atoms: _111  and  _113
REMARK   39  A    between atoms: _113  and  _114
REMARK   40  A    between atoms: _113  and  _116
REMARK   41  A    between atoms: _116  and  _117
REMARK   42  A    between atoms: _123  and  _125
REMARK   43  A    between atoms: _136  and  _139
REMARK   44  A    between atoms: _139  and  _140
REMARK   45  A    between atoms: _148  and  _149
REMARK   46  A    between atoms: _157  and  _159
REMARK   47  A    between atoms: _159  and  _160
REMARK   48  A    between atoms: _159  and  _162
REMARK   49  A    between atoms: _162  and  _163
REMARK   50  A    between atoms: _163  and  _164
REMARK   51  A    between atoms: _167  and  _169
REMARK   52  A    between atoms: _169  and  _170
REMARK   53  A    between atoms: _169  and  _172
REMARK   54  A    between atoms: _172  and  _173
REMARK   55  A    between atoms: _178  and  _180
REMARK   56  A    between atoms: _180  and  _181
REMARK   57  A    between atoms: _180  and  _183
REMARK   58  A    between atoms: _183  and  _184
REMARK   59  A    between atoms: _184  and  _185
REMARK   60  A    between atoms: _188  and  _190
REMARK   61  A    between atoms: _190  and  _191
REMARK   62  A    between atoms: _190  and  _193
REMARK   63  A    between atoms: _193  and  _194
REMARK   64  A    between atoms: _197  and  _199
REMARK   65  A    between atoms: _199  and  _200
REMARK   66  A    between atoms: _199  and  _202
REMARK   67  A    between atoms: _202  and  _203
REMARK   68  A    between atoms: _204  and  ZN_424
REMARK   69  A    between atoms: _208  and  _210
REMARK   70  A    between atoms: _210  and  _211
REMARK   71  A    between atoms: _210  and  _213
REMARK   72  A    between atoms: _213  and  _214
REMARK   73  A    between atoms: _217  and  _219
REMARK   74  A    between atoms: _219  and  _220
REMARK   75  A    between atoms: _219  and  _222
REMARK   76  A    between atoms: _225  and  _227
REMARK   77  A    between atoms: _227  and  _228
REMARK   78  A    between atoms: _227  and  _230
REMARK   79  A    between atoms: _230  and  _231
REMARK   80  A    between atoms: _236  and  _238
REMARK   81  A    between atoms: _238  and  _239
REMARK   82  A    between atoms: _238  and  _241
REMARK   83  A    between atoms: _241  and  _242
REMARK   84  A    between atoms: _248  and  _250
REMARK   85  A    between atoms: _250  and  _251
REMARK   86  A    between atoms: _250  and  _253
REMARK   87  A    between atoms: _256  and  _258
REMARK   88  A    between atoms: _258  and  _259
REMARK   89  A    between atoms: _258  and  _261
REMARK   90  A    between atoms: _261  and  _262
REMARK   91  A    between atoms: _265  and  _267
REMARK   92  A    between atoms: _267  and  _268
REMARK   93  A    between atoms: _271  and  _273
REMARK   94  A    between atoms: _273  and  _274
REMARK   95  A    between atoms: _273  and  _276
REMARK   96  A    between atoms: _279  and  _281
REMARK   97  A    between atoms: _281  and  _282
REMARK   98  A    between atoms: _281  and  _284
REMARK   99  A    between atoms: _284  and  _285
REMARK  100  A    between atoms: _288  and  _290
REMARK  101  A    between atoms: _290  and  _291
REMARK  102  A    between atoms: _293  and  _295
REMARK  103  A    between atoms: _295  and  _296
REMARK  104  A    between atoms: _298  and  _300
REMARK  105  A    between atoms: _300  and  _301
REMARK  106  A    between atoms: _300  and  _303
REMARK  107  A    between atoms: _303  and  _304
REMARK  108  A    between atoms: _306  and  _308
REMARK  109  A    between atoms: _308  and  _309
REMARK  110  A    between atoms: _308  and  _311
REMARK  111  A    between atoms: _311  and  _312
REMARK  112  A    between atoms: _315  and  _317
REMARK  113  A    between atoms: _317  and  _318
REMARK  114  A    between atoms: _317  and  _320
REMARK  115  A    between atoms: _320  and  _321
REMARK  116  A    between atoms: _324  and  _326
REMARK  117  A    between atoms: _326  and  _327
REMARK  118  A    between atoms: _326  and  _329
REMARK  119  A    between atoms: _329  and  _330
REMARK  120  A    between atoms: _334  and  _335
REMARK  121  A    between atoms: _341  and  _342
REMARK  122  A    between atoms: _347  and  _349
REMARK  123  A    between atoms: _349  and  _350
REMARK  124  A    between atoms: _349  and  _352
REMARK  125  A    between atoms: _352  and  _353
REMARK  126  A    between atoms: _356  and  _358
REMARK  127  A    between atoms: _358  and  _359
REMARK  128  A    between atoms: _358  and  _361
REMARK  129  A    between atoms: _361  and  _362
REMARK  130  A    between atoms: _365  and  _367
REMARK  131  A    between atoms: _367  and  _368
REMARK  132  A    between atoms: _367  and  _370
REMARK  133  A    between atoms: _372  and  _374
REMARK  134  A    between atoms: _374  and  _375
REMARK  135  A    between atoms: _374  and  _377
REMARK  136  A    between atoms: _380  and  _382
REMARK  137  A    between atoms: _382  and  _383
REMARK  138  A    between atoms: _382  and  _385
REMARK  139  A    between atoms: _385  and  _386
REMARK  140  A    between atoms: _396  and  _398
REMARK  141  A    between atoms: _398  and  _399
REMARK  142  A    between atoms: _398  and  _401
REMARK  143  A    between atoms: _401  and  _402
REMARK  144  A    between atoms: _407  and  _409
REMARK  145  A    between atoms: _409  and  _410
REMARK  146  A    between atoms: _409  and  _412
REMARK  147  A    between atoms: _412  and  _413
REMARK  148  A    between atoms: _413  and  _414
REMARK  149  A    between atoms: _414  and  _415
REMARK                            x       y       z     vdW  Elec       q    Type
REMARK                         _______ _______ _______ _____ _____    ______ ____
ROOT
ATOM      1  CB  ASN A   1      -8.277   2.625   7.001  0.00  0.00    +0.110 C 
ENDROOT
BRANCH   1   2
ATOM      2  CG  ASN A   1      -7.229   2.335   8.058  0.00  0.00    +0.221 C 
ATOM      3  ND2 ASN A   1      -7.185   1.106   8.534  0.00  0.00    -0.329 N 
ATOM      4 HD21 ASN A   1      -6.487   0.856   9.263  0.00  0.00    +0.145 HD
ATOM      5 HD22 ASN A   1      -7.848   0.387   8.180  0.00  0.00    +0.145 HD
ATOM      6  OD1 ASN A   1      -6.466   3.225   8.443  0.00  0.00    -0.275 OA
ENDBRANCH   1   2
BRANCH   1   7
ATOM      7  CA  ASN A   1      -9.073   1.381   6.574  0.00  0.00    +0.142 C 
BRANCH   7   8
ATOM      8  N   ASN A   1      -8.223   0.453   5.841  0.00  0.00    -0.239 NA
ATOM      9  H   ASN A   1      -7.630   0.813   5.067  0.00  0.00    +0.142 HD
ENDBRANCH   7   8
BRANCH   7  10
ATOM     10  C   ASN A   1     -10.256   1.870   5.753  0.00  0.00    +0.225 C 
ATOM     11  O   ASN A   1     -10.090   2.285   4.605  0.00  0.00    -0.287 OA
ENDBRANCH   7  10
ENDBRANCH   1   7
TORSDOF 4
REMARK  Name = ../refined-set-2016/3t5u/3t5u_pocket.pdb
REMARK  149 active torsions:
REMARK  status: ('A' for Active; 'I' for Inactive)
REMARK    1  A    between atoms: _1  and  _3
REMARK    2  A    between atoms: _3  and  _4
REMARK    3  A    between atoms: _3  and  _6
REMARK    4  A    between atoms: _6  and  _7
REMARK    5  A    between atoms: _17  and  _19
REMARK    6  A    between atoms: _19  and  _20
REMARK    7  A    between atoms: _19  and  _22
REMARK    8  A    between atoms: _22  and  _23
REMARK    9  A    between atoms: _28  and  _29
REMARK   10  A    between atoms: _31  and  _33
REMARK   11  A    between atoms: _33  and  _34
REMARK   12  A    between atoms: _33  and  _36
REMARK   13  A    between atoms: _36  and  _37
REMARK   14  A    between atoms: _47  and  _49
REMARK   15  A    between atoms: _49  and  _50
REMARK   16  A    between atoms: _49  and  _52
REMARK   17  A    between atoms: _52  and  _53
REMARK   18  A    between atoms: _56  and  _57
REMARK   19  A    between atoms: _62  and  _64
REMARK   20  A    between atoms: _64  and  _65
REMARK   21  A    between atoms: _64  and  _67
REMARK   22  A    between atoms: _67  and  _68
REMARK   23  A    between atoms: _73  and  _75
REMARK   24  A    between atoms: _75  and  _76
REMARK   25  A    between atoms: _79  and  _81
REMARK   26  A    between atoms: _81  and  _82
REMARK   27  A    between atoms: _81  and  _84
REMARK   28  A    between atoms: _84  and  _85
REMARK   29  A    between atoms: _90  and  _92
REMARK   30  A    between atoms: _92  and  _93
REMARK   31  A    between atoms: _92  and  _95
REMARK   32  A    between atoms: _95  and  _96
REMARK   33  A    between atoms: _99  and  _101
REMARK   34  A    between atoms: _101  and  _102
REMARK   35  A    between atoms: _101  and  _104
REMARK   36  A    between atoms: _104  and  _105
REMARK   37  A    between atoms: _105  and  _106
REMARK   38  A    between atoms: _111  and  _113
REMARK   39  A    between atoms: _113  and  _114
REMARK   40  A    between atoms: _113  and  _116
REMARK   41  A    between atoms: _116  and  _117
REMARK   42  A    between atoms: _123  and  _125
REMARK   43  A    between atoms: _136  and  _139
REMARK   44  A    between atoms: _139  and  _140
REMARK   45  A    between atoms: _148  and  _149
REMARK   46  A    between atoms: _157  and  _159
REMARK   47  A    between atoms: _159  and  _160
REMARK   48  A    between atoms: _159  and  _162
REMARK   49  A    between atoms: _162  and  _163
REMARK   50  A    between atoms: _163  and  _164
REMARK   51  A    between atoms: _167  and  _169
REMARK   52  A    between atoms: _169  and  _170
REMARK   53  A    between atoms: _169  and  _172
REMARK   54  A    between atoms: _172  and  _173
REMARK   55  A    between atoms: _178  and  _180
REMARK   56  A    between atoms: _180  and  _181
REMARK   57  A    between atoms: _180  and  _183
REMARK   58  A    between atoms: _183  and  _184
REMARK   59  A    between atoms: _184  and  _185
REMARK   60  A    between atoms: _188  and  _190
REMARK   61  A    between atoms: _190  and  _191
REMARK   62  A    between atoms: _190  and  _193
REMARK   63  A    between atoms: _193  and  _194
REMARK   64  A    between atoms: _197  and  _199
REMARK   65  A    between atoms: _199  and  _200
REMARK   66  A    between atoms: _199  and  _202
REMARK   67  A    between atoms: _202  and  _203
REMARK   68  A    between atoms: _204  and  ZN_424
REMARK   69  A    between atoms: _208  and  _210
REMARK   70  A    between atoms: _210  and  _211
REMARK   71  A    between atoms: _210  and  _213
REMARK   72  A    between atoms: _213  and  _214
REMARK   73  A    between atoms: _217  and  _219
REMARK   74  A    between atoms: _219  and  _220
REMARK   75  A    between atoms: _219  and  _222
REMARK   76  A    between atoms: _225  and  _227
REMARK   77  A    between atoms: _227  and  _228
REMARK   78  A    between atoms: _227  and  _230
REMARK   79  A    between atoms: _230  and  _231
REMARK   80  A    between atoms: _236  and  _238
REMARK   81  A    between atoms: _238  and  _239
REMARK   82  A    between atoms: _238  and  _241
REMARK   83  A    between atoms: _241  and  _242
REMARK   84  A    between atoms: _248  and  _250
REMARK   85  A    between atoms: _250  and  _251
REMARK   86  A    between atoms: _250  and  _253
REMARK   87  A    between atoms: _256  and  _258
REMARK   88  A    between atoms: _258  and  _259
REMARK   89  A    between atoms: _258  and  _261
REMARK   90  A    between atoms: _261  and  _262
REMARK   91  A    between atoms: _265  and  _267
REMARK   92  A    between atoms: _267  and  _268
REMARK   93  A    between atoms: _271  and  _273
REMARK   94  A    between atoms: _273  and  _274
REMARK   95  A    between atoms: _273  and  _276
REMARK   96  A    between atoms: _279  and  _281
REMARK   97  A    between atoms: _281  and  _282
REMARK   98  A    between atoms: _281  and  _284
REMARK   99  A    between atoms: _284  and  _285
REMARK  100  A    between atoms: _288  and  _290
REMARK  101  A    between atoms: _290  and  _291
REMARK  102  A    between atoms: _293  and  _295
REMARK  103  A    between atoms: _295  and  _296
REMARK  104  A    between atoms: _298  and  _300
REMARK  105  A    between atoms: _300  and  _301
REMARK  106  A    between atoms: _300  and  _303
REMARK  107  A    between atoms: _303  and  _304
REMARK  108  A    between atoms: _306  and  _308
REMARK  109  A    between atoms: _308  and  _309
REMARK  110  A    between atoms: _308  and  _311
REMARK  111  A    between atoms: _311  and  _312
REMARK  112  A    between atoms: _315  and  _317
REMARK  113  A    between atoms: _317  and  _318
REMARK  114  A    between atoms: _317  and  _320
REMARK  115  A    between atoms: _320  and  _321
REMARK  116  A    between atoms: _324  and  _326
REMARK  117  A    between atoms: _326  and  _327
REMARK  118  A    between atoms: _326  and  _329
REMARK  119  A    between atoms: _329  and  _330
REMARK  120  A    between atoms: _334  and  _335
REMARK  121  A    between atoms: _341  and  _342
REMARK  122  A    between atoms: _347  and  _349
REMARK  123  A    between atoms: _349  and  _350
REMARK  124  A    between atoms: _349  and  _352
REMARK  125  A    between atoms: _352  and  _353
REMARK  126  A    between atoms: _356  and  _358
REMARK  127  A    between atoms: _358  and  _359
REMARK  128  A    between atoms: _358  and  _361
REMARK  129  A    between atoms: _361  and  _362
REMARK  130  A    between atoms: _365  and  _367
REMARK  131  A    between atoms: _367  and  _368
REMARK  132  A    between atoms: _367  and  _370
REMARK  133  A    between atoms: _372  and  _374
REMARK  134  A    between atoms: _374  and  _375
REMARK  135  A    between atoms: _374  and  _377
REMARK  136  A    between atoms: _380  and  _382
REMARK  137  A    between atoms: _382  and  _383
REMARK  138  A    between atoms: _382  and  _385
REMARK  139  A    between atoms: _385  and  _386
REMARK  140  A    between atoms: _396  and  _398
REMARK  141  A    between atoms: _398  and  _399
REMARK  142  A    between atoms: _398  and  _401
REMARK  143  A    between atoms: _401  and  _402
REMARK  144  A    between atoms: _407  and  _409
REMARK  145  A    between atoms: _409  and  _410
REMARK  146  A    between atoms: _409  and  _412
REMARK  147  A    between atoms: _412  and  _413
REMARK  148  A    between atoms: _413  and  _414
REMARK  149  A    between atoms: _414  and  _415
REMARK                            x       y       z     vdW  Elec       q    Type
REMARK                         _______ _______ _______ _____ _____    ______ ____
ROOT
ATOM      1  C   UNK A   4     -10.221  -1.559  10.202  0.00  0.00    +0.000 C 
ATOM      2  C   UNK A   4     -10.262  -2.818  11.042  0.00  0.00    +0.000 C 
ATOM      3  O   UNK A   4     -10.887  -2.841  12.106  0.00  0.00    +0.000 OA
ATOM      4  N   VAL A   5      -9.582  -3.854  10.568  0.00  0.00    +0.000 N 
ATOM      5  CA  VAL A   5      -9.534  -5.120  11.279  0.00  0.00    +0.000 C 
ATOM      6  C   VAL A   5      -8.101  -5.605  11.466  0.00  0.00    +0.000 C 
ATOM      7  N   UNK A   6      -7.967  -6.608  12.325  0.00  0.00    +0.000 N 
ATOM      8  H   UNK A   6      -8.813  -6.925  12.840  0.00  0.00    +0.000 HD
ATOM      9  C   UNK A   6      -6.712  -7.292  12.592  0.00  0.00    +0.000 C 
ATOM     10  C   UNK A   6      -6.212  -6.989  14.004  0.00  0.00    +0.000 C 
ATOM     11  C   UNK A   6      -5.805  -5.563  14.203  0.00  0.00    +0.000 A 
ATOM     12  C   UNK A   6      -6.499  -4.496  14.662  0.00  0.00    +0.000 A 
ATOM     13  N   UNK A   6      -5.656  -3.412  14.618  0.00  0.00    +0.000 N 
ATOM     14 ZN   UNK A   6      -6.580  -1.646  15.225  0.00  0.00    +0.000 Zn
ATOM     15  N   UNK A   4      -7.314  -0.853  13.517  0.00  0.00    +0.000 N 
ATOM     16  C   UNK A   4      -7.827   0.355  13.361  0.00  0.00    +0.000 A 
ATOM     17  N   UNK A   4      -8.368   0.426  12.157  0.00  0.00    +0.000 NA
ATOM     18  C   UNK A   4      -8.203  -0.780  11.510  0.00  0.00    +0.000 A 
ATOM     19  C   UNK A   4      -7.533  -1.581  12.373  0.00  0.00    +0.000 A 
ATOM     20  C   UNK A   6      -4.485  -3.801  14.146  0.00  0.00    +0.000 A 
ATOM     21  N   UNK A   6      -4.547  -5.095  13.886  0.00  0.00    +0.000 NA
ATOM     22  O   VAL A   5      -7.161  -5.095  10.856  0.00  0.00    +0.000 OA
ATOM     23  H   VAL A   5      -9.072  -3.758   9.667  0.00  0.00    +0.000 HD
ATOM     24  C   UNK A   4      -8.780  -1.053  10.155  0.00  0.00    +0.000 C 
ENDROOT
BRANCH  14  25
ATOM     25  N   UNK A   6      -8.014  -2.351  16.530  0.00  0.00    +0.000 N 
ATOM     26  C   UNK A   6      -7.689  -3.246  17.446  0.00  0.00    +0.000 A 
ATOM     27  N   UNK A   6      -8.796  -3.674  18.023  0.00  0.00    +0.000 NA
ATOM     28  C   UNK A   6      -9.871  -3.033  17.453  0.00  0.00    +0.000 A 
ATOM     29  C   UNK A   6      -9.383  -2.196  16.511  0.00  0.00    +0.000 A 
BRANCH  29  30
ATOM     30  C   UNK A   6     -10.077  -1.242  15.589  0.00  0.00    +0.000 C 
BRANCH  30  31
ATOM     31  C   UNK A   6     -11.592  -1.468  15.497  0.00  0.00    +0.000 C 
BRANCH  31  32
ATOM     32  C   UNK A   6     -12.234  -0.257  14.848  0.00  0.00    +0.000 C 
ATOM     33  N   UNK A   4     -13.203   0.333  15.538  0.00  0.00    +0.000 N 
ATOM     34  H   UNK A   4     -13.497  -0.074  16.449  0.00  0.00    +0.000 HD
ATOM     35  O   UNK A   6     -11.873   0.117  13.733  0.00  0.00    +0.000 OA
BRANCH  33  36
ATOM     36  C   UNK A   4     -13.866   1.540  15.050  0.00  0.00    +0.000 C 
BRANCH  36  37
ATOM     37  C   UNK A   4     -13.215   2.668  15.844  0.00  0.00    +0.000 C 
ATOM     38  O   UNK A   4     -13.407   2.787  17.053  0.00  0.00    +0.000 OA
ATOM     39  N   VAL A   5     -12.424   3.478  15.149  0.00  0.00    +0.000 N 
ATOM     40  H   VAL A   5     -12.341   3.332  14.123  0.00  0.00    +0.000 HD
BRANCH  39  41
ATOM     41  CA  VAL A   5     -11.666   4.564  15.763  0.00  0.00    +0.000 C 
BRANCH  41  42
ATOM     42  C   VAL A   5     -12.402   5.899  15.809  0.00  0.00    +0.000 C 
ATOM     43  N   UNK A   6     -12.470   6.496  17.000  0.00  0.00    +0.000 N 
ATOM     44  H   UNK A   6     -12.032   6.033  17.822  0.00  0.00    +0.000 HD
ATOM     45  O   VAL A   5     -12.885   6.377  14.784  0.00  0.00    +0.000 OA
BRANCH  43  46
ATOM     46  C   UNK A   6     -13.142   7.783  17.186  0.00  0.00    +0.000 C 
BRANCH  46  47
ATOM     47  C   UNK A   6     -12.230   8.754  17.929  0.00  0.00    +0.000 C 
ATOM     48  O   UNK A   6     -11.443   8.342  18.783  0.00  0.00    +0.000 OA
ENDBRANCH  46  47
BRANCH  46  49
ATOM     49  C   UNK A   6     -14.423   7.631  18.022  0.00  0.00    +0.000 C 
BRANCH  49  50
ATOM     50  C   UNK A   6     -15.295   6.482  17.620  0.00  0.00    +0.000 A 
ATOM     51  N   UNK A   6     -14.956   5.168  17.862  0.00  0.00    +0.000 NA
ATOM     52  C   UNK A   6     -15.926   4.380  17.433  0.00  0.00    +0.000 A 
ATOM     53  N   UNK A   6     -16.881   5.134  16.921  0.00  0.00    +0.000 NA
ATOM     54  C   UNK A   6     -16.511   6.453  17.024  0.00  0.00    +0.000 A 
ENDBRANCH  49  50
ENDBRANCH  46  49
ENDBRANCH  43  46
ENDBRANCH  41  42
BRANCH  41  55
ATOM     55  CB  VAL A   5     -10.338   4.759  15.002  0.00  0.00    +0.000 C 
ATOM     56  CG2 VAL A   5      -9.457   5.768  15.722  0.00  0.00    +0.000 C 
ATOM     57  CG1 VAL A   5      -9.632   3.420  14.847  0.00  0.00    +0.000 C 
ENDBRANCH  41  55
ENDBRANCH  39  41
ENDBRANCH  36  37
BRANCH  36  58
ATOM     58  C   UNK A   4     -15.375   1.461  15.306  0.00  0.00    +0.000 C 
BRANCH  58  59
ATOM     59  C   UNK A   4     -16.039   0.374  14.445  0.00  0.00    +0.000 C 
ATOM     60  C   UNK A   4     -16.895  -0.529  15.316  0.00  0.00    +0.000 C 
ATOM     61  C   UNK A   4     -16.873   1.026  13.341  0.00  0.00    +0.000 C 
ENDBRANCH  58  59
ENDBRANCH  36  58
ENDBRANCH  33  36
ENDBRANCH  31  32
BRANCH  31  62
ATOM     62  N   UNK A   6     -11.880  -2.668  14.730  0.00  0.00    +0.000 N 
ATOM     63  C   LEU A   2     -12.490  -3.717  15.269  0.00  0.00    +0.000 C 
ATOM     64  O   LEU A   2     -12.858  -3.752  16.443  0.00  0.00    +0.000 OA
ATOM     65  H   UNK A   6     -11.600  -2.706  13.729  0.00  0.00    +0.000 HD
BRANCH  63  66
ATOM     66  CA  LEU A   2     -12.728  -4.902  14.344  0.00  0.00    +0.000 C 
BRANCH  66  67
ATOM     67  N   LEU A   2     -12.349  -6.132  15.027  0.00  0.00    +0.000 N 
ATOM     68  H   LEU A   2     -13.042  -6.586  15.656  0.00  0.00    +0.000 HD
ATOM     69  C   GLU A   1     -11.156  -6.698  14.881  0.00  0.00    +0.000 C 
ATOM     70  O   GLU A   1     -10.275  -6.256  14.148  0.00  0.00    +0.000 OA
BRANCH  69  71
ATOM     71  CA  GLU A   1     -10.936  -7.968  15.677  0.00  0.00    +0.000 C 
BRANCH  71  72
ATOM     72  N   GLU A   1     -10.429  -9.002  14.794  0.00  0.00    +0.000 NA
ATOM     73  H   GLU A   1      -9.787  -8.744  14.017  0.00  0.00    +0.000 HD
ENDBRANCH  71  72
BRANCH  71  74
ATOM     74  CB  GLU A   1      -9.951  -7.707  16.818  0.00  0.00    +0.000 C 
BRANCH  74  75
ATOM     75  CG  GLU A   1     -10.509  -6.802  17.914  0.00  0.00    +0.000 C 
BRANCH  75  76
ATOM     76  CD  GLU A   1      -9.578  -6.693  19.103  0.00  0.00    +0.000 C 
ATOM     77  OE2 GLU A   1      -9.503  -5.598  19.699  0.00  0.00    +0.000 OA
ATOM     78  OE1 GLU A   1      -8.934  -7.707  19.450  0.00  0.00    +0.000 OA
ENDBRANCH  75  76
ENDBRANCH  74  75
ENDBRANCH  71  74
ENDBRANCH  69  71
ENDBRANCH  66  67
BRANCH  66  79
ATOM     79  CB  LEU A   2     -14.212  -4.956  13.961  0.00  0.00    +0.000 C 
BRANCH  79  80
ATOM     80  CG  LEU A   2     -14.879  -3.660  13.488  0.00  0.00    +0.000 C 
ATOM     81  CD2 LEU A   2     -16.364  -3.919  13.253  0.00  0.00    +0.000 C 
ATOM     82  CD1 LEU A   2     -14.221  -3.169  12.211  0.00  0.00    +0.000 C 
ENDBRANCH  79  80
ENDBRANCH  66  79
ENDBRANCH  63  66
ENDBRANCH  31  62
ENDBRANCH  30  31
ENDBRANCH  29  30
ENDBRANCH  14  25
BRANCH   1  84
ATOM     83  C   UNK A   3     -11.611   0.431  10.215  0.00  0.00    +0.000 C 
ATOM     84  N   UNK A   4     -11.079  -0.594  10.864  0.00  0.00    +0.000 N 
ATOM     85  H   UNK A   4     -11.282  -0.710  11.877  0.00  0.00    +0.000 HD
ATOM     86  O   UNK A   3     -11.391   0.658   9.021  0.00  0.00    +0.000 OA
BRANCH  83  87
ATOM     87  C   UNK A   3     -12.475   1.366  11.046  0.00  0.00    +0.000 C 
BRANCH  87  90
ATOM     88  C   LEU A   2     -12.348   3.787  11.094  0.00  0.00    +0.000 C 
ATOM     89  O   LEU A   2     -12.423   3.817  12.318  0.00  0.00    +0.000 OA
ATOM     90  N   UNK A   3     -12.439   2.665  10.386  0.00  0.00    +0.000 N 
ATOM     91  H   UNK A   3     -12.485   2.715   9.348  0.00  0.00    +0.000 HD
BRANCH  88  92
ATOM     92  CA  LEU A   2     -12.193   5.077  10.302  0.00  0.00    +0.000 C 
BRANCH  92  94
ATOM     93  C   GLU A   1     -12.577   7.459  10.628  0.00  0.00    +0.000 C 
ATOM     94  N   LEU A   2     -12.502   6.234  11.146  0.00  0.00    +0.000 N 
ATOM     95  H   LEU A   2     -12.665   6.097  12.164  0.00  0.00    +0.000 HD
ATOM     96  O   GLU A   1     -12.420   7.674   9.429  0.00  0.00    +0.000 OA
BRANCH  93  97
ATOM     97  CA  GLU A   1     -12.900   8.611  11.589  0.00  0.00    +0.000 C 
BRANCH  97  98
ATOM     98  CB  GLU A   1     -11.590   9.238  12.129  0.00  0.00    +0.000 C 
ATOM     99  CG2 GLU A   1     -10.876   8.251  13.041  0.00  0.00    +0.000 C 
BRANCH  98 100
ATOM    100  CG1 GLU A   1     -10.704   9.674  10.960  0.00  0.00    +0.000 C 
ATOM    101  CD1 GLU A   1      -9.509  10.510  11.371  0.00  0.00    +0.000 C 
ENDBRANCH  98 100
ENDBRANCH  97  98
BRANCH  97 102
ATOM    102  N   GLU A   1     -13.754   8.176  12.686  0.00  0.00    +0.000 NA
ATOM    103  H   GLU A   1     -13.377   7.512  13.393  0.00  0.00    +0.000 HD
ENDBRANCH  97 102
ENDBRANCH  93  97
ENDBRANCH  92  94
BRANCH  92 104
ATOM    104  CB  LEU A   2     -10.739   5.149   9.807  0.00  0.00    +0.000 C 
BRANCH 104 105
ATOM    105  CG  LEU A   2      -9.703   5.192  10.947  0.00  0.00    +0.000 C 
BRANCH 105 106
ATOM    106  CD  LEU A   2      -8.915   3.897  11.120  0.00  0.00    +0.000 C 
ATOM    107  NE2 LEU A   2      -7.619   4.027  11.385  0.00  0.00    +0.000 N 
ATOM    108 HE21 LEU A   2      -7.030   3.182  11.529  0.00  0.00    +0.000 HD
ATOM    109 HE22 LEU A   2      -7.194   4.974  11.449  0.00  0.00    +0.000 HD
ATOM    110  OE1 LEU A   2      -9.466   2.799  11.034  0.00  0.00    +0.000 OA
ENDBRANCH 105 106
ENDBRANCH 104 105
ENDBRANCH  92 104
ENDBRANCH  88  92
ENDBRANCH  87  90
BRANCH  87 111
ATOM    111  C   UNK A   3     -13.911   0.826  11.241  0.00  0.00    +0.000 C 
BRANCH 111 112
ATOM    112  C   UNK A   3     -14.580   0.309   9.990  0.00  0.00    +0.000 A 
ATOM    113  C   UNK A   3     -15.693   0.966   9.474  0.00  0.00    +0.000 A 
ATOM    114  C   UNK A   3     -16.373   0.466   8.365  0.00  0.00    +0.000 A 
ATOM    115  C   UNK A   3     -15.937  -0.706   7.756  0.00  0.00    +0.000 A 
ATOM    116  C   UNK A   3     -14.822  -1.375   8.257  0.00  0.00    +0.000 A 
ATOM    117  C   UNK A   3     -14.148  -0.864   9.370  0.00  0.00    +0.000 A 
ENDBRANCH 111 112
ENDBRANCH  87 111
ENDBRANCH  83  87
ENDBRANCH   1  84
BRANCH   9 118
ATOM    118  C   UNK A   6      -7.142  -8.752  12.483  0.00  0.00    +0.000 C 
ATOM    119  O   UNK A   6      -8.157  -9.139  13.064  0.00  0.00    +0.000 OA
ENDBRANCH   9 118
BRANCH   5 120
ATOM    120  CB  VAL A   5     -10.280  -6.220  10.504  0.00  0.00    +0.000 C 
BRANCH 120 121
ATOM    121  CG  VAL A   5     -11.705  -5.886  10.150  0.00  0.00    +0.000 A 
ATOM    122  CD2 VAL A   5     -12.760  -6.473  10.845  0.00  0.00    +0.000 A 
ATOM    123  CE2 VAL A   5     -14.082  -6.228  10.483  0.00  0.00    +0.000 A 
ATOM    124  CZ  VAL A   5     -14.363  -5.382   9.408  0.00  0.00    +0.000 A 
ATOM    125  CE1 VAL A   5     -13.319  -4.784   8.708  0.00  0.00    +0.000 A 
ATOM    126  CD1 VAL A   5     -11.995  -5.038   9.082  0.00  0.00    +0.000 A 
ENDBRANCH 120 121
ENDBRANCH   5 120
TORSDOF 42
REMARK  Name = ../refined-set-2016/3t5u/3t5u_pocket.pdb
REMARK  149 active torsions:
REMARK  status: ('A' for Active; 'I' for Inactive)
REMARK    1  A    between atoms: _1  and  _3
REMARK    2  A    between atoms: _3  and  _4
REMARK    3  A    between atoms: _3  and  _6
REMARK    4  A    between atoms: _6  and  _7
REMARK    5  A    between atoms: _17  and  _19
REMARK    6  A    between atoms: _19  and  _20
REMARK    7  A    between atoms: _19  and  _22
REMARK    8  A    between atoms: _22  and  _23
REMARK    9  A    between atoms: _28  and  _29
REMARK   10  A    between atoms: _31  and  _33
REMARK   11  A    between atoms: _33  and  _34
REMARK   12  A    between atoms: _33  and  _36
REMARK   13  A    between atoms: _36  and  _37
REMARK   14  A    between atoms: _47  and  _49
REMARK   15  A    between atoms: _49  and  _50
REMARK   16  A    between atoms: _49  and  _52
REMARK   17  A    between atoms: _52  and  _53
REMARK   18  A    between atoms: _56  and  _57
REMARK   19  A    between atoms: _62  and  _64
REMARK   20  A    between atoms: _64  and  _65
REMARK   21  A    between atoms: _64  and  _67
REMARK   22  A    between atoms: _67  and  _68
REMARK   23  A    between atoms: _73  and  _75
REMARK   24  A    between atoms: _75  and  _76
REMARK   25  A    between atoms: _79  and  _81
REMARK   26  A    between atoms: _81  and  _82
REMARK   27  A    between atoms: _81  and  _84
REMARK   28  A    between atoms: _84  and  _85
REMARK   29  A    between atoms: _90  and  _92
REMARK   30  A    between atoms: _92  and  _93
REMARK   31  A    between atoms: _92  and  _95
REMARK   32  A    between atoms: _95  and  _96
REMARK   33  A    between atoms: _99  and  _101
REMARK   34  A    between atoms: _101  and  _102
REMARK   35  A    between atoms: _101  and  _104
REMARK   36  A    between atoms: _104  and  _105
REMARK   37  A    between atoms: _105  and  _106
REMARK   38  A    between atoms: _111  and  _113
REMARK   39  A    between atoms: _113  and  _114
REMARK   40  A    between atoms: _113  and  _116
REMARK   41  A    between atoms: _116  and  _117
REMARK   42  A    between atoms: _123  and  _125
REMARK   43  A    between atoms: _136  and  _139
REMARK   44  A    between atoms: _139  and  _140
REMARK   45  A    between atoms: _148  and  _149
REMARK   46  A    between atoms: _157  and  _159
REMARK   47  A    between atoms: _159  and  _160
REMARK   48  A    between atoms: _159  and  _162
REMARK   49  A    between atoms: _162  and  _163
REMARK   50  A    between atoms: _163  and  _164
REMARK   51  A    between atoms: _167  and  _169
REMARK   52  A    between atoms: _169  and  _170
REMARK   53  A    between atoms: _169  and  _172
REMARK   54  A    between atoms: _172  and  _173
REMARK   55  A    between atoms: _178  and  _180
REMARK   56  A    between atoms: _180  and  _181
REMARK   57  A    between atoms: _180  and  _183
REMARK   58  A    between atoms: _183  and  _184
REMARK   59  A    between atoms: _184  and  _185
REMARK   60  A    between atoms: _188  and  _190
REMARK   61  A    between atoms: _190  and  _191
REMARK   62  A    between atoms: _190  and  _193
REMARK   63  A    between atoms: _193  and  _194
REMARK   64  A    between atoms: _197  and  _199
REMARK   65  A    between atoms: _199  and  _200
REMARK   66  A    between atoms: _199  and  _202
REMARK   67  A    between atoms: _202  and  _203
REMARK   68  A    between atoms: _204  and  ZN_424
REMARK   69  A    between atoms: _208  and  _210
REMARK   70  A    between atoms: _210  and  _211
REMARK   71  A    between atoms: _210  and  _213
REMARK   72  A    between atoms: _213  and  _214
REMARK   73  A    between atoms: _217  and  _219
REMARK   74  A    between atoms: _219  and  _220
REMARK   75  A    between atoms: _219  and  _222
REMARK   76  A    between atoms: _225  and  _227
REMARK   77  A    between atoms: _227  and  _228
REMARK   78  A    between atoms: _227  and  _230
REMARK   79  A    between atoms: _230  and  _231
REMARK   80  A    between atoms: _236  and  _238
REMARK   81  A    between atoms: _238  and  _239
REMARK   82  A    between atoms: _238  and  _241
REMARK   83  A    between atoms: _241  and  _242
REMARK   84  A    between atoms: _248  and  _250
REMARK   85  A    between atoms: _250  and  _251
REMARK   86  A    between atoms: _250  and  _253
REMARK   87  A    between atoms: _256  and  _258
REMARK   88  A    between atoms: _258  and  _259
REMARK   89  A    between atoms: _258  and  _261
REMARK   90  A    between atoms: _261  and  _262
REMARK   91  A    between atoms: _265  and  _267
REMARK   92  A    between atoms: _267  and  _268
REMARK   93  A    between atoms: _271  and  _273
REMARK   94  A    between atoms: _273  and  _274
REMARK   95  A    between atoms: _273  and  _276
REMARK   96  A    between atoms: _279  and  _281
REMARK   97  A    between atoms: _281  and  _282
REMARK   98  A    between atoms: _281  and  _284
REMARK   99  A    between atoms: _284  and  _285
REMARK  100  A    between atoms: _288  and  _290
REMARK  101  A    between atoms: _290  and  _291
REMARK  102  A    between atoms: _293  and  _295
REMARK  103  A    between atoms: _295  and  _296
REMARK  104  A    between atoms: _298  and  _300
REMARK  105  A    between atoms: _300  and  _301
REMARK  106  A    between atoms: _300  and  _303
REMARK  107  A    between atoms: _303  and  _304
REMARK  108  A    between atoms: _306  and  _308
REMARK  109  A    between atoms: _308  and  _309
REMARK  110  A    between atoms: _308  and  _311
REMARK  111  A    between atoms: _311  and  _312
REMARK  112  A    between atoms: _315  and  _317
REMARK  113  A    between atoms: _317  and  _318
REMARK  114  A    between atoms: _317  and  _320
REMARK  115  A    between atoms: _320  and  _321
REMARK  116  A    between atoms: _324  and  _326
REMARK  117  A    between atoms: _326  and  _327
REMARK  118  A    between atoms: _326  and  _329
REMARK  119  A    between atoms: _329  and  _330
REMARK  120  A    between atoms: _334  and  _335
REMARK  121  A    between atoms: _341  and  _342
REMARK  122  A    between atoms: _347  and  _349
REMARK  123  A    between atoms: _349  and  _350
REMARK  124  A    between atoms: _349  and  _352
REMARK  125  A    between atoms: _352  and  _353
REMARK  126  A    between atoms: _356  and  _358
REMARK  127  A    between atoms: _358  and  _359
REMARK  128  A    between atoms: _358  and  _361
REMARK  129  A    between atoms: _361  and  _362
REMARK  130  A    between atoms: _365  and  _367
REMARK  131  A    between atoms: _367  and  _368
REMARK  132  A    between atoms: _367  and  _370
REMARK  133  A    between atoms: _372  and  _374
REMARK  134  A    between atoms: _374  and  _375
REMARK  135  A    between atoms: _374  and  _377
REMARK  136  A    between atoms: _380  and  _382
REMARK  137  A    between atoms: _382  and  _383
REMARK  138  A    between atoms: _382  and  _385
REMARK  139  A    between atoms: _385  and  _386
REMARK  140  A    between atoms: _396  and  _398
REMARK  141  A    between atoms: _398  and  _399
REMARK  142  A    between atoms: _398  and  _401
REMARK  143  A    between atoms: _401  and  _402
REMARK  144  A    between atoms: _407  and  _409
REMARK  145  A    between atoms: _409  and  _410
REMARK  146  A    between atoms: _409  and  _412
REMARK  147  A    between atoms: _412  and  _413
REMARK  148  A    between atoms: _413  and  _414
REMARK  149  A    between atoms: _414  and  _415
REMARK                            x       y       z     vdW  Elec       q    Type
REMARK                         _______ _______ _______ _____ _____    ______ ____
ROOT
ATOM      1  C   GLU A   1      -5.810  -8.566  21.028  0.00  0.00    +0.238 C 
ATOM      2  O   GLU A   1      -5.004  -9.063  21.814  0.00  0.00    -0.274 OA
ATOM      3  N   HIS A   2      -7.016  -8.165  21.412  0.00  0.00    -0.298 N 
ATOM      4  H   HIS A   2      -7.661  -7.707  20.737  0.00  0.00    +0.150 HD
ENDROOT
BRANCH   1   5
ATOM      5  CA  GLU A   1      -5.457  -8.395  19.554  0.00  0.00    +0.145 C 
BRANCH   5   6
ATOM      6  N   GLU A   1      -6.524  -8.998  18.773  0.00  0.00    -0.238 NA
ATOM      7  H   GLU A   1      -7.369  -8.435  18.546  0.00  0.00    +0.142 HD
ENDBRANCH   5   6
BRANCH   5   8
ATOM      8  CB  GLU A   1      -5.296  -6.926  19.164  0.00  0.00    +0.038 C 
BRANCH   8   9
ATOM      9  CG  GLU A   1      -4.906  -6.778  17.692  0.00  0.00    +0.116 C 
BRANCH   9  10
ATOM     10  CD  GLU A   1      -4.251  -5.451  17.378  0.00  0.00    +0.365 C 
ATOM     11  OE2 GLU A   1      -4.862  -4.404  17.662  0.00  0.00    -0.246 OA
ATOM     12  OE1 GLU A   1      -3.121  -5.459  16.842  0.00  0.00    -0.246 OA
ENDBRANCH   9  10
ENDBRANCH   8   9
ENDBRANCH   5   8
ENDBRANCH   1   5
BRANCH   3  13
ATOM     13  CA  HIS A   2      -7.420  -8.377  22.793  0.00  0.00    +0.143 C 
BRANCH  13  14
ATOM     14  C   HIS A   2      -7.804  -9.848  22.876  0.00  0.00    +0.227 C 
ATOM     15  O   HIS A   2      -8.165 -10.457  21.868  0.00  0.00    -0.286 OA
ENDBRANCH  13  14
BRANCH  13  16
ATOM     16  CB  HIS A   2      -8.638  -7.522  23.168  0.00  0.00    +0.075 C 
BRANCH  16  17
ATOM     17  CG  HIS A   2      -8.334  -6.063  23.299  0.00  0.00    +0.082 A 
ATOM     18  CD2 HIS A   2      -7.952  -5.329  24.370  0.00  0.00    +0.115 A 
ATOM     19  NE2 HIS A   2      -7.741  -4.045  23.927  0.00  0.00    -0.221 NA
ATOM     20  CE1 HIS A   2      -7.989  -3.993  22.631  0.00  0.00    +0.199 A 
ATOM     21  ND1 HIS A   2      -8.351  -5.198  22.226  0.00  0.00    -0.227 NA
ENDBRANCH  16  17
ENDBRANCH  13  16
ENDBRANCH   3  13
TORSDOF 9
REMARK  Name = ../refined-set-2016/3t5u/3t5u_pocket.pdb
REMARK  149 active torsions:
REMARK  status: ('A' for Active; 'I' for Inactive)
REMARK    1  A    between atoms: _1  and  _3
REMARK    2  A    between atoms: _3  and  _4
REMARK    3  A    between atoms: _3  and  _6
REMARK    4  A    between atoms: _6  and  _7
REMARK    5  A    between atoms: _17  and  _19
REMARK    6  A    between atoms: _19  and  _20
REMARK    7  A    between atoms: _19  and  _22
REMARK    8  A    between atoms: _22  and  _23
REMARK    9  A    between atoms: _28  and  _29
REMARK   10  A    between atoms: _31  and  _33
REMARK   11  A    between atoms: _33  and  _34
REMARK   12  A    between atoms: _33  and  _36
REMARK   13  A    between atoms: _36  and  _37
REMARK   14  A    between atoms: _47  and  _49
REMARK   15  A    between atoms: _49  and  _50
REMARK   16  A    between atoms: _49  and  _52
REMARK   17  A    between atoms: _52  and  _53
REMARK   18  A    between atoms: _56  and  _57
REMARK   19  A    between atoms: _62  and  _64
REMARK   20  A    between atoms: _64  and  _65
REMARK   21  A    between atoms: _64  and  _67
REMARK   22  A    between atoms: _67  and  _68
REMARK   23  A    between atoms: _73  and  _75
REMARK   24  A    between atoms: _75  and  _76
REMARK   25  A    between atoms: _79  and  _81
REMARK   26  A    between atoms: _81  and  _82
REMARK   27  A    between atoms: _81  and  _84
REMARK   28  A    between atoms: _84  and  _85
REMARK   29  A    between atoms: _90  and  _92
REMARK   30  A    between atoms: _92  and  _93
REMARK   31  A    between atoms: _92  and  _95
REMARK   32  A    between atoms: _95  and  _96
REMARK   33  A    between atoms: _99  and  _101
REMARK   34  A    between atoms: _101  and  _102
REMARK   35  A    between atoms: _101  and  _104
REMARK   36  A    between atoms: _104  and  _105
REMARK   37  A    between atoms: _105  and  _106
REMARK   38  A    between atoms: _111  and  _113
REMARK   39  A    between atoms: _113  and  _114
REMARK   40  A    between atoms: _113  and  _116
REMARK   41  A    between atoms: _116  and  _117
REMARK   42  A    between atoms: _123  and  _125
REMARK   43  A    between atoms: _136  and  _139
REMARK   44  A    between atoms: _139  and  _140
REMARK   45  A    between atoms: _148  and  _149
REMARK   46  A    between atoms: _157  and  _159
REMARK   47  A    between atoms: _159  and  _160
REMARK   48  A    between atoms: _159  and  _162
REMARK   49  A    between atoms: _162  and  _163
REMARK   50  A    between atoms: _163  and  _164
REMARK   51  A    between atoms: _167  and  _169
REMARK   52  A    between atoms: _169  and  _170
REMARK   53  A    between atoms: _169  and  _172
REMARK   54  A    between atoms: _172  and  _173
REMARK   55  A    between atoms: _178  and  _180
REMARK   56  A    between atoms: _180  and  _181
REMARK   57  A    between atoms: _180  and  _183
REMARK   58  A    between atoms: _183  and  _184
REMARK   59  A    between atoms: _184  and  _185
REMARK   60  A    between atoms: _188  and  _190
REMARK   61  A    between atoms: _190  and  _191
REMARK   62  A    between atoms: _190  and  _193
REMARK   63  A    between atoms: _193  and  _194
REMARK   64  A    between atoms: _197  and  _199
REMARK   65  A    between atoms: _199  and  _200
REMARK   66  A    between atoms: _199  and  _202
REMARK   67  A    between atoms: _202  and  _203
REMARK   68  A    between atoms: _204  and  ZN_424
REMARK   69  A    between atoms: _208  and  _210
REMARK   70  A    between atoms: _210  and  _211
REMARK   71  A    between atoms: _210  and  _213
REMARK   72  A    between atoms: _213  and  _214
REMARK   73  A    between atoms: _217  and  _219
REMARK   74  A    between atoms: _219  and  _220
REMARK   75  A    between atoms: _219  and  _222
REMARK   76  A    between atoms: _225  and  _227
REMARK   77  A    between atoms: _227  and  _228
REMARK   78  A    between atoms: _227  and  _230
REMARK   79  A    between atoms: _230  and  _231
REMARK   80  A    between atoms: _236  and  _238
REMARK   81  A    between atoms: _238  and  _239
REMARK   82  A    between atoms: _238  and  _241
REMARK   83  A    between atoms: _241  and  _242
REMARK   84  A    between atoms: _248  and  _250
REMARK   85  A    between atoms: _250  and  _251
REMARK   86  A    between atoms: _250  and  _253
REMARK   87  A    between atoms: _256  and  _258
REMARK   88  A    between atoms: _258  and  _259
REMARK   89  A    between atoms: _258  and  _261
REMARK   90  A    between atoms: _261  and  _262
REMARK   91  A    between atoms: _265  and  _267
REMARK   92  A    between atoms: _267  and  _268
REMARK   93  A    between atoms: _271  and  _273
REMARK   94  A    between atoms: _273  and  _274
REMARK   95  A    between atoms: _273  and  _276
REMARK   96  A    between atoms: _279  and  _281
REMARK   97  A    between atoms: _281  and  _282
REMARK   98  A    between atoms: _281  and  _284
REMARK   99  A    between atoms: _284  and  _285
REMARK  100  A    between atoms: _288  and  _290
REMARK  101  A    between atoms: _290  and  _291
REMARK  102  A    between atoms: _293  and  _295
REMARK  103  A    between atoms: _295  and  _296
REMARK  104  A    between atoms: _298  and  _300
REMARK  105  A    between atoms: _300  and  _301
REMARK  106  A    between atoms: _300  and  _303
REMARK  107  A    between atoms: _303  and  _304
REMARK  108  A    between atoms: _306  and  _308
REMARK  109  A    between atoms: _308  and  _309
REMARK  110  A    between atoms: _308  and  _311
REMARK  111  A    between atoms: _311  and  _312
REMARK  112  A    between atoms: _315  and  _317
REMARK  113  A    between atoms: _317  and  _318
REMARK  114  A    between atoms: _317  and  _320
REMARK  115  A    between atoms: _320  and  _321
REMARK  116  A    between atoms: _324  and  _326
REMARK  117  A    between atoms: _326  and  _327
REMARK  118  A    between atoms: _326  and  _329
REMARK  119  A    between atoms: _329  and  _330
REMARK  120  A    between atoms: _334  and  _335
REMARK  121  A    between atoms: _341  and  _342
REMARK  122  A    between atoms: _347  and  _349
REMARK  123  A    between atoms: _349  and  _350
REMARK  124  A    between atoms: _349  and  _352
REMARK  125  A    between atoms: _352  and  _353
REMARK  126  A    between atoms: _356  and  _358
REMARK  127  A    between atoms: _358  and  _359
REMARK  128  A    between atoms: _358  and  _361
REMARK  129  A    between atoms: _361  and  _362
REMARK  130  A    between atoms: _365  and  _367
REMARK  131  A    between atoms: _367  and  _368
REMARK  132  A    between atoms: _367  and  _370
REMARK  133  A    between atoms: _372  and  _374
REMARK  134  A    between atoms: _374  and  _375
REMARK  135  A    between atoms: _374  and  _377
REMARK  136  A    between atoms: _380  and  _382
REMARK  137  A    between atoms: _382  and  _383
REMARK  138  A    between atoms: _382  and  _385
REMARK  139  A    between atoms: _385  and  _386
REMARK  140  A    between atoms: _396  and  _398
REMARK  141  A    between atoms: _398  and  _399
REMARK  142  A    between atoms: _398  and  _401
REMARK  143  A    between atoms: _401  and  _402
REMARK  144  A    between atoms: _407  and  _409
REMARK  145  A    between atoms: _409  and  _410
REMARK  146  A    between atoms: _409  and  _412
REMARK  147  A    between atoms: _412  and  _413
REMARK  148  A    between atoms: _413  and  _414
REMARK  149  A    between atoms: _414  and  _415
REMARK                            x       y       z     vdW  Elec       q    Type
REMARK                         _______ _______ _______ _____ _____    ______ ____
ROOT
ATOM      1  CB  PHE A   1      -7.490  12.705  14.060  0.00  0.00    +0.051 C 
ENDROOT
BRANCH   1   2
ATOM      2  CG  PHE A   1      -6.869  11.377  14.377  0.00  0.00    -0.020 A 
ATOM      3  CD2 PHE A   1      -7.652  10.327  14.850  0.00  0.00    -0.004 A 
ATOM      4  CE2 PHE A   1      -7.081   9.092  15.148  0.00  0.00    -0.000 A 
ATOM      5  CZ  PHE A   1      -5.714   8.903  14.973  0.00  0.00    -0.000 A 
ATOM      6  CE1 PHE A   1      -4.926   9.943  14.504  0.00  0.00    -0.000 A 
ATOM      7  CD1 PHE A   1      -5.506  11.173  14.209  0.00  0.00    -0.004 A 
ENDBRANCH   1   2
BRANCH   1   8
ATOM      8  CA  PHE A   1      -7.422  13.716  15.210  0.00  0.00    +0.137 C 
BRANCH   8   9
ATOM      9  N   PHE A   1      -8.076  14.949  14.805  0.00  0.00    -0.239 NA
ATOM     10  H   PHE A   1      -8.508  15.007  13.861  0.00  0.00    +0.142 HD
ENDBRANCH   8   9
BRANCH   8  11
ATOM     11  C   PHE A   1      -5.977  13.948  15.632  0.00  0.00    +0.224 C 
ATOM     12  O   PHE A   1      -5.505  13.366  16.610  0.00  0.00    -0.287 OA
ENDBRANCH   8  11
ENDBRANCH   1   8
TORSDOF 4
REMARK  Name = ../refined-set-2016/3t5u/3t5u_pocket.pdb
REMARK  149 active torsions:
REMARK  status: ('A' for Active; 'I' for Inactive)
REMARK    1  A    between atoms: _1  and  _3
REMARK    2  A    between atoms: _3  and  _4
REMARK    3  A    between atoms: _3  and  _6
REMARK    4  A    between atoms: _6  and  _7
REMARK    5  A    between atoms: _17  and  _19
REMARK    6  A    between atoms: _19  and  _20
REMARK    7  A    between atoms: _19  and  _22
REMARK    8  A    between atoms: _22  and  _23
REMARK    9  A    between atoms: _28  and  _29
REMARK   10  A    between atoms: _31  and  _33
REMARK   11  A    between atoms: _33  and  _34
REMARK   12  A    between atoms: _33  and  _36
REMARK   13  A    between atoms: _36  and  _37
REMARK   14  A    between atoms: _47  and  _49
REMARK   15  A    between atoms: _49  and  _50
REMARK   16  A    between atoms: _49  and  _52
REMARK   17  A    between atoms: _52  and  _53
REMARK   18  A    between atoms: _56  and  _57
REMARK   19  A    between atoms: _62  and  _64
REMARK   20  A    between atoms: _64  and  _65
REMARK   21  A    between atoms: _64  and  _67
REMARK   22  A    between atoms: _67  and  _68
REMARK   23  A    between atoms: _73  and  _75
REMARK   24  A    between atoms: _75  and  _76
REMARK   25  A    between atoms: _79  and  _81
REMARK   26  A    between atoms: _81  and  _82
REMARK   27  A    between atoms: _81  and  _84
REMARK   28  A    between atoms: _84  and  _85
REMARK   29  A    between atoms: _90  and  _92
REMARK   30  A    between atoms: _92  and  _93
REMARK   31  A    between atoms: _92  and  _95
REMARK   32  A    between atoms: _95  and  _96
REMARK   33  A    between atoms: _99  and  _101
REMARK   34  A    between atoms: _101  and  _102
REMARK   35  A    between atoms: _101  and  _104
REMARK   36  A    between atoms: _104  and  _105
REMARK   37  A    between atoms: _105  and  _106
REMARK   38  A    between atoms: _111  and  _113
REMARK   39  A    between atoms: _113  and  _114
REMARK   40  A    between atoms: _113  and  _116
REMARK   41  A    between atoms: _116  and  _117
REMARK   42  A    between atoms: _123  and  _125
REMARK   43  A    between atoms: _136  and  _139
REMARK   44  A    between atoms: _139  and  _140
REMARK   45  A    between atoms: _148  and  _149
REMARK   46  A    between atoms: _157  and  _159
REMARK   47  A    between atoms: _159  and  _160
REMARK   48  A    between atoms: _159  and  _162
REMARK   49  A    between atoms: _162  and  _163
REMARK   50  A    between atoms: _163  and  _164
REMARK   51  A    between atoms: _167  and  _169
REMARK   52  A    between atoms: _169  and  _170
REMARK   53  A    between atoms: _169  and  _172
REMARK   54  A    between atoms: _172  and  _173
REMARK   55  A    between atoms: _178  and  _180
REMARK   56  A    between atoms: _180  and  _181
REMARK   57  A    between atoms: _180  and  _183
REMARK   58  A    between atoms: _183  and  _184
REMARK   59  A    between atoms: _184  and  _185
REMARK   60  A    between atoms: _188  and  _190
REMARK   61  A    between atoms: _190  and  _191
REMARK   62  A    between atoms: _190  and  _193
REMARK   63  A    between atoms: _193  and  _194
REMARK   64  A    between atoms: _197  and  _199
REMARK   65  A    between atoms: _199  and  _200
REMARK   66  A    between atoms: _199  and  _202
REMARK   67  A    between atoms: _202  and  _203
REMARK   68  A    between atoms: _204  and  ZN_424
REMARK   69  A    between atoms: _208  and  _210
REMARK   70  A    between atoms: _210  and  _211
REMARK   71  A    between atoms: _210  and  _213
REMARK   72  A    between atoms: _213  and  _214
REMARK   73  A    between atoms: _217  and  _219
REMARK   74  A    between atoms: _219  and  _220
REMARK   75  A    between atoms: _219  and  _222
REMARK   76  A    between atoms: _225  and  _227
REMARK   77  A    between atoms: _227  and  _228
REMARK   78  A    between atoms: _227  and  _230
REMARK   79  A    between atoms: _230  and  _231
REMARK   80  A    between atoms: _236  and  _238
REMARK   81  A    between atoms: _238  and  _239
REMARK   82  A    between atoms: _238  and  _241
REMARK   83  A    between atoms: _241  and  _242
REMARK   84  A    between atoms: _248  and  _250
REMARK   85  A    between atoms: _250  and  _251
REMARK   86  A    between atoms: _250  and  _253
REMARK   87  A    between atoms: _256  and  _258
REMARK   88  A    between atoms: _258  and  _259
REMARK   89  A    between atoms: _258  and  _261
REMARK   90  A    between atoms: _261  and  _262
REMARK   91  A    between atoms: _265  and  _267
REMARK   92  A    between atoms: _267  and  _268
REMARK   93  A    between atoms: _271  and  _273
REMARK   94  A    between atoms: _273  and  _274
REMARK   95  A    between atoms: _273  and  _276
REMARK   96  A    between atoms: _279  and  _281
REMARK   97  A    between atoms: _281  and  _282
REMARK   98  A    between atoms: _281  and  _284
REMARK   99  A    between atoms: _284  and  _285
REMARK  100  A    between atoms: _288  and  _290
REMARK  101  A    between atoms: _290  and  _291
REMARK  102  A    between atoms: _293  and  _295
REMARK  103  A    between atoms: _295  and  _296
REMARK  104  A    between atoms: _298  and  _300
REMARK  105  A    between atoms: _300  and  _301
REMARK  106  A    between atoms: _300  and  _303
REMARK  107  A    between atoms: _303  and  _304
REMARK  108  A    between atoms: _306  and  _308
REMARK  109  A    between atoms: _308  and  _309
REMARK  110  A    between atoms: _308  and  _311
REMARK  111  A    between atoms: _311  and  _312
REMARK  112  A    between atoms: _315  and  _317
REMARK  113  A    between atoms: _317  and  _318
REMARK  114  A    between atoms: _317  and  _320
REMARK  115  A    between atoms: _320  and  _321
REMARK  116  A    between atoms: _324  and  _326
REMARK  117  A    between atoms: _326  and  _327
REMARK  118  A    between atoms: _326  and  _329
REMARK  119  A    between atoms: _329  and  _330
REMARK  120  A    between atoms: _334  and  _335
REMARK  121  A    between atoms: _341  and  _342
REMARK  122  A    between atoms: _347  and  _349
REMARK  123  A    between atoms: _349  and  _350
REMARK  124  A    between atoms: _349  and  _352
REMARK  125  A    between atoms: _352  and  _353
REMARK  126  A    between atoms: _356  and  _358
REMARK  127  A    between atoms: _358  and  _359
REMARK  128  A    between atoms: _358  and  _361
REMARK  129  A    between atoms: _361  and  _362
REMARK  130  A    between atoms: _365  and  _367
REMARK  131  A    between atoms: _367  and  _368
REMARK  132  A    between atoms: _367  and  _370
REMARK  133  A    between atoms: _372  and  _374
REMARK  134  A    between atoms: _374  and  _375
REMARK  135  A    between atoms: _374  and  _377
REMARK  136  A    between atoms: _380  and  _382
REMARK  137  A    between atoms: _382  and  _383
REMARK  138  A    between atoms: _382  and  _385
REMARK  139  A    between atoms: _385  and  _386
REMARK  140  A    between atoms: _396  and  _398
REMARK  141  A    between atoms: _398  and  _399
REMARK  142  A    between atoms: _398  and  _401
REMARK  143  A    between atoms: _401  and  _402
REMARK  144  A    between atoms: _407  and  _409
REMARK  145  A    between atoms: _409  and  _410
REMARK  146  A    between atoms: _409  and  _412
REMARK  147  A    between atoms: _412  and  _413
REMARK  148  A    between atoms: _413  and  _414
REMARK  149  A    between atoms: _414  and  _415
REMARK                            x       y       z     vdW  Elec       q    Type
REMARK                         _______ _______ _______ _____ _____    ______ ____
ROOT
ATOM      1  CA  VAL A   1      -3.507  11.890  19.835  0.00  0.00    +0.133 C 
ENDROOT
BRANCH   1   2
ATOM      2  CB  VAL A   1      -2.913  11.170  18.596  0.00  0.00    +0.023 C 
ATOM      3  CG2 VAL A   1      -4.000  10.352  17.915  0.00  0.00    +0.002 C 
ATOM      4  CG1 VAL A   1      -2.319  12.174  17.619  0.00  0.00    +0.002 C 
ENDBRANCH   1   2
BRANCH   1   5
ATOM      5  N   VAL A   1      -4.516  12.877  19.462  0.00  0.00    -0.239 NA
ATOM      6  H   VAL A   1      -4.545  13.249  18.491  0.00  0.00    +0.142 HD
ENDBRANCH   1   5
BRANCH   1   7
ATOM      7  C   VAL A   1      -2.375  12.461  20.690  0.00  0.00    +0.224 C 
ATOM      8  O   VAL A   1      -1.308  11.861  20.817  0.00  0.00    -0.287 OA
ENDBRANCH   1   7
TORSDOF 3
REMARK  Name = ../refined-set-2016/3t5u/3t5u_pocket.pdb
REMARK  149 active torsions:
REMARK  status: ('A' for Active; 'I' for Inactive)
REMARK    1  A    between atoms: _1  and  _3
REMARK    2  A    between atoms: _3  and  _4
REMARK    3  A    between atoms: _3  and  _6
REMARK    4  A    between atoms: _6  and  _7
REMARK    5  A    between atoms: _17  and  _19
REMARK    6  A    between atoms: _19  and  _20
REMARK    7  A    between atoms: _19  and  _22
REMARK    8  A    between atoms: _22  and  _23
REMARK    9  A    between atoms: _28  and  _29
REMARK   10  A    between atoms: _31  and  _33
REMARK   11  A    between atoms: _33  and  _34
REMARK   12  A    between atoms: _33  and  _36
REMARK   13  A    between atoms: _36  and  _37
REMARK   14  A    between atoms: _47  and  _49
REMARK   15  A    between atoms: _49  and  _50
REMARK   16  A    between atoms: _49  and  _52
REMARK   17  A    between atoms: _52  and  _53
REMARK   18  A    between atoms: _56  and  _57
REMARK   19  A    between atoms: _62  and  _64
REMARK   20  A    between atoms: _64  and  _65
REMARK   21  A    between atoms: _64  and  _67
REMARK   22  A    between atoms: _67  and  _68
REMARK   23  A    between atoms: _73  and  _75
REMARK   24  A    between atoms: _75  and  _76
REMARK   25  A    between atoms: _79  and  _81
REMARK   26  A    between atoms: _81  and  _82
REMARK   27  A    between atoms: _81  and  _84
REMARK   28  A    between atoms: _84  and  _85
REMARK   29  A    between atoms: _90  and  _92
REMARK   30  A    between atoms: _92  and  _93
REMARK   31  A    between atoms: _92  and  _95
REMARK   32  A    between atoms: _95  and  _96
REMARK   33  A    between atoms: _99  and  _101
REMARK   34  A    between atoms: _101  and  _102
REMARK   35  A    between atoms: _101  and  _104
REMARK   36  A    between atoms: _104  and  _105
REMARK   37  A    between atoms: _105  and  _106
REMARK   38  A    between atoms: _111  and  _113
REMARK   39  A    between atoms: _113  and  _114
REMARK   40  A    between atoms: _113  and  _116
REMARK   41  A    between atoms: _116  and  _117
REMARK   42  A    between atoms: _123  and  _125
REMARK   43  A    between atoms: _136  and  _139
REMARK   44  A    between atoms: _139  and  _140
REMARK   45  A    between atoms: _148  and  _149
REMARK   46  A    between atoms: _157  and  _159
REMARK   47  A    between atoms: _159  and  _160
REMARK   48  A    between atoms: _159  and  _162
REMARK   49  A    between atoms: _162  and  _163
REMARK   50  A    between atoms: _163  and  _164
REMARK   51  A    between atoms: _167  and  _169
REMARK   52  A    between atoms: _169  and  _170
REMARK   53  A    between atoms: _169  and  _172
REMARK   54  A    between atoms: _172  and  _173
REMARK   55  A    between atoms: _178  and  _180
REMARK   56  A    between atoms: _180  and  _181
REMARK   57  A    between atoms: _180  and  _183
REMARK   58  A    between atoms: _183  and  _184
REMARK   59  A    between atoms: _184  and  _185
REMARK   60  A    between atoms: _188  and  _190
REMARK   61  A    between atoms: _190  and  _191
REMARK   62  A    between atoms: _190  and  _193
REMARK   63  A    between atoms: _193  and  _194
REMARK   64  A    between atoms: _197  and  _199
REMARK   65  A    between atoms: _199  and  _200
REMARK   66  A    between atoms: _199  and  _202
REMARK   67  A    between atoms: _202  and  _203
REMARK   68  A    between atoms: _204  and  ZN_424
REMARK   69  A    between atoms: _208  and  _210
REMARK   70  A    between atoms: _210  and  _211
REMARK   71  A    between atoms: _210  and  _213
REMARK   72  A    between atoms: _213  and  _214
REMARK   73  A    between atoms: _217  and  _219
REMARK   74  A    between atoms: _219  and  _220
REMARK   75  A    between atoms: _219  and  _222
REMARK   76  A    between atoms: _225  and  _227
REMARK   77  A    between atoms: _227  and  _228
REMARK   78  A    between atoms: _227  and  _230
REMARK   79  A    between atoms: _230  and  _231
REMARK   80  A    between atoms: _236  and  _238
REMARK   81  A    between atoms: _238  and  _239
REMARK   82  A    between atoms: _238  and  _241
REMARK   83  A    between atoms: _241  and  _242
REMARK   84  A    between atoms: _248  and  _250
REMARK   85  A    between atoms: _250  and  _251
REMARK   86  A    between atoms: _250  and  _253
REMARK   87  A    between atoms: _256  and  _258
REMARK   88  A    between atoms: _258  and  _259
REMARK   89  A    between atoms: _258  and  _261
REMARK   90  A    between atoms: _261  and  _262
REMARK   91  A    between atoms: _265  and  _267
REMARK   92  A    between atoms: _267  and  _268
REMARK   93  A    between atoms: _271  and  _273
REMARK   94  A    between atoms: _273  and  _274
REMARK   95  A    between atoms: _273  and  _276
REMARK   96  A    between atoms: _279  and  _281
REMARK   97  A    between atoms: _281  and  _282
REMARK   98  A    between atoms: _281  and  _284
REMARK   99  A    between atoms: _284  and  _285
REMARK  100  A    between atoms: _288  and  _290
REMARK  101  A    between atoms: _290  and  _291
REMARK  102  A    between atoms: _293  and  _295
REMARK  103  A    between atoms: _295  and  _296
REMARK  104  A    between atoms: _298  and  _300
REMARK  105  A    between atoms: _300  and  _301
REMARK  106  A    between atoms: _300  and  _303
REMARK  107  A    between atoms: _303  and  _304
REMARK  108  A    between atoms: _306  and  _308
REMARK  109  A    between atoms: _308  and  _309
REMARK  110  A    between atoms: _308  and  _311
REMARK  111  A    between atoms: _311  and  _312
REMARK  112  A    between atoms: _315  and  _317
REMARK  113  A    between atoms: _317  and  _318
REMARK  114  A    between atoms: _317  and  _320
REMARK  115  A    between atoms: _320  and  _321
REMARK  116  A    between atoms: _324  and  _326
REMARK  117  A    between atoms: _326  and  _327
REMARK  118  A    between atoms: _326  and  _329
REMARK  119  A    between atoms: _329  and  _330
REMARK  120  A    between atoms: _334  and  _335
REMARK  121  A    between atoms: _341  and  _342
REMARK  122  A    between atoms: _347  and  _349
REMARK  123  A    between atoms: _349  and  _350
REMARK  124  A    between atoms: _349  and  _352
REMARK  125  A    between atoms: _352  and  _353
REMARK  126  A    between atoms: _356  and  _358
REMARK  127  A    between atoms: _358  and  _359
REMARK  128  A    between atoms: _358  and  _361
REMARK  129  A    between atoms: _361  and  _362
REMARK  130  A    between atoms: _365  and  _367
REMARK  131  A    between atoms: _367  and  _368
REMARK  132  A    between atoms: _367  and  _370
REMARK  133  A    between atoms: _372  and  _374
REMARK  134  A    between atoms: _374  and  _375
REMARK  135  A    between atoms: _374  and  _377
REMARK  136  A    between atoms: _380  and  _382
REMARK  137  A    between atoms: _382  and  _383
REMARK  138  A    between atoms: _382  and  _385
REMARK  139  A    between atoms: _385  and  _386
REMARK  140  A    between atoms: _396  and  _398
REMARK  141  A    between atoms: _398  and  _399
REMARK  142  A    between atoms: _398  and  _401
REMARK  143  A    between atoms: _401  and  _402
REMARK  144  A    between atoms: _407  and  _409
REMARK  145  A    between atoms: _409  and  _410
REMARK  146  A    between atoms: _409  and  _412
REMARK  147  A    between atoms: _412  and  _413
REMARK  148  A    between atoms: _413  and  _414
REMARK  149  A    between atoms: _414  and  _415
REMARK                            x       y       z     vdW  Elec       q    Type
REMARK                         _______ _______ _______ _____ _____    ______ ____
ROOT
ATOM      1  CA  VAL A   3     -11.852   2.702  20.016  0.00  0.00    +0.149 C 
ENDROOT
BRANCH   1   3
ATOM      2  C   ALA A   2     -12.146   4.963  20.793  0.00  0.00    +0.241 C 
ATOM      3  N   VAL A   3     -11.760   3.721  21.046  0.00  0.00    -0.297 N 
ATOM      4  H   VAL A   3     -11.390   3.475  21.986  0.00  0.00    +0.150 HD
ATOM      5  O   ALA A   2     -12.531   5.328  19.679  0.00  0.00    -0.273 OA
BRANCH   2   6
ATOM      6  CA  ALA A   2     -12.030   5.954  21.938  0.00  0.00    +0.149 C 
ATOM      7  CB  ALA A   2     -13.405   6.499  22.319  0.00  0.00    +0.031 C 
BRANCH   6  10
ATOM      8  C   LEU A   1     -10.254   7.619  22.130  0.00  0.00    +0.238 C 
ATOM      9  O   LEU A   1     -10.059   7.390  23.320  0.00  0.00    -0.274 OA
ATOM     10  N   ALA A   2     -11.179   7.006  21.403  0.00  0.00    -0.297 N 
ATOM     11  H   ALA A   2     -11.301   7.289  20.410  0.00  0.00    +0.150 HD
BRANCH   8  12
ATOM     12  CA  LEU A   1      -9.422   8.639  21.376  0.00  0.00    +0.145 C 
BRANCH  12  13
ATOM     13  N   LEU A   1      -8.762   9.614  22.232  0.00  0.00    -0.238 NA
ATOM     14  H   LEU A   1      -8.176   9.291  23.028  0.00  0.00    +0.142 HD
ENDBRANCH  12  13
BRANCH  12  15
ATOM     15  CB  LEU A   1      -8.385   7.869  20.555  0.00  0.00    +0.026 C 
BRANCH  15  16
ATOM     16  CG  LEU A   1      -7.386   8.638  19.690  0.00  0.00    +0.002 C 
ATOM     17  CD2 LEU A   1      -6.445   7.631  19.029  0.00  0.00    +0.000 C 
ATOM     18  CD1 LEU A   1      -8.114   9.470  18.642  0.00  0.00    +0.000 C 
ENDBRANCH  15  16
ENDBRANCH  12  15
ENDBRANCH   8  12
ENDBRANCH   6  10
ENDBRANCH   2   6
ENDBRANCH   1   3
BRANCH   1  19
ATOM     19  C   VAL A   3     -12.822   1.633  20.481  0.00  0.00    +0.241 C 
ATOM     20  O   VAL A   3     -12.707   1.114  21.592  0.00  0.00    -0.273 OA
ATOM     21  N   LEU A   4     -13.803   1.340  19.637  0.00  0.00    -0.297 N 
ATOM     22  H   LEU A   4     -13.867   1.857  18.737  0.00  0.00    +0.150 HD
BRANCH  21  23
ATOM     23  CA  LEU A   4     -14.791   0.315  19.936  0.00  0.00    +0.149 C 
BRANCH  23  24
ATOM     24  C   LEU A   4     -14.264  -0.945  19.265  0.00  0.00    +0.241 C 
ATOM     25  N   GLY A   5     -13.929  -1.950  20.067  0.00  0.00    -0.296 N 
ATOM     26  H   GLY A   5     -14.043  -1.848  21.096  0.00  0.00    +0.150 HD
ATOM     27  O   LEU A   4     -14.141  -0.992  18.043  0.00  0.00    -0.273 OA
BRANCH  25  28
ATOM     28  CA  GLY A   5     -13.406  -3.188  19.521  0.00  0.00    +0.163 C 
BRANCH  28  29
ATOM     29  C   GLY A   5     -14.451  -4.282  19.509  0.00  0.00    +0.229 C 
ATOM     30  O   GLY A   5     -15.179  -4.466  20.482  0.00  0.00    -0.286 OA
ENDBRANCH  28  29
ENDBRANCH  25  28
ENDBRANCH  23  24
BRANCH  23  31
ATOM     31  CB  LEU A   4     -16.150   0.705  19.343  0.00  0.00    +0.029 C 
BRANCH  31  32
ATOM     32  CG  LEU A   4     -17.301  -0.293  19.485  0.00  0.00    +0.002 C 
ATOM     33  CD2 LEU A   4     -17.563  -0.573  20.957  0.00  0.00    +0.000 C 
ATOM     34  CD1 LEU A   4     -18.546   0.272  18.810  0.00  0.00    +0.000 C 
ENDBRANCH  31  32
ENDBRANCH  23  31
ENDBRANCH  21  23
ENDBRANCH   1  19
BRANCH   1  35
ATOM     35  CB  VAL A   3     -10.481   2.051  19.714  0.00  0.00    +0.027 C 
ATOM     36  CG2 VAL A   3      -9.474   3.116  19.295  0.00  0.00    +0.002 C 
ATOM     37  CG1 VAL A   3     -10.635   1.021  18.588  0.00  0.00    +0.002 C 
ENDBRANCH   1  35
TORSDOF 15
REMARK  Name = ../refined-set-2016/3t5u/3t5u_pocket.pdb
REMARK  149 active torsions:
REMARK  status: ('A' for Active; 'I' for Inactive)
REMARK    1  A    between atoms: _1  and  _3
REMARK    2  A    between atoms: _3  and  _4
REMARK    3  A    between atoms: _3  and  _6
REMARK    4  A    between atoms: _6  and  _7
REMARK    5  A    between atoms: _17  and  _19
REMARK    6  A    between atoms: _19  and  _20
REMARK    7  A    between atoms: _19  and  _22
REMARK    8  A    between atoms: _22  and  _23
REMARK    9  A    between atoms: _28  and  _29
REMARK   10  A    between atoms: _31  and  _33
REMARK   11  A    between atoms: _33  and  _34
REMARK   12  A    between atoms: _33  and  _36
REMARK   13  A    between atoms: _36  and  _37
REMARK   14  A    between atoms: _47  and  _49
REMARK   15  A    between atoms: _49  and  _50
REMARK   16  A    between atoms: _49  and  _52
REMARK   17  A    between atoms: _52  and  _53
REMARK   18  A    between atoms: _56  and  _57
REMARK   19  A    between atoms: _62  and  _64
REMARK   20  A    between atoms: _64  and  _65
REMARK   21  A    between atoms: _64  and  _67
REMARK   22  A    between atoms: _67  and  _68
REMARK   23  A    between atoms: _73  and  _75
REMARK   24  A    between atoms: _75  and  _76
REMARK   25  A    between atoms: _79  and  _81
REMARK   26  A    between atoms: _81  and  _82
REMARK   27  A    between atoms: _81  and  _84
REMARK   28  A    between atoms: _84  and  _85
REMARK   29  A    between atoms: _90  and  _92
REMARK   30  A    between atoms: _92  and  _93
REMARK   31  A    between atoms: _92  and  _95
REMARK   32  A    between atoms: _95  and  _96
REMARK   33  A    between atoms: _99  and  _101
REMARK   34  A    between atoms: _101  and  _102
REMARK   35  A    between atoms: _101  and  _104
REMARK   36  A    between atoms: _104  and  _105
REMARK   37  A    between atoms: _105  and  _106
REMARK   38  A    between atoms: _111  and  _113
REMARK   39  A    between atoms: _113  and  _114
REMARK   40  A    between atoms: _113  and  _116
REMARK   41  A    between atoms: _116  and  _117
REMARK   42  A    between atoms: _123  and  _125
REMARK   43  A    between atoms: _136  and  _139
REMARK   44  A    between atoms: _139  and  _140
REMARK   45  A    between atoms: _148  and  _149
REMARK   46  A    between atoms: _157  and  _159
REMARK   47  A    between atoms: _159  and  _160
REMARK   48  A    between atoms: _159  and  _162
REMARK   49  A    between atoms: _162  and  _163
REMARK   50  A    between atoms: _163  and  _164
REMARK   51  A    between atoms: _167  and  _169
REMARK   52  A    between atoms: _169  and  _170
REMARK   53  A    between atoms: _169  and  _172
REMARK   54  A    between atoms: _172  and  _173
REMARK   55  A    between atoms: _178  and  _180
REMARK   56  A    between atoms: _180  and  _181
REMARK   57  A    between atoms: _180  and  _183
REMARK   58  A    between atoms: _183  and  _184
REMARK   59  A    between atoms: _184  and  _185
REMARK   60  A    between atoms: _188  and  _190
REMARK   61  A    between atoms: _190  and  _191
REMARK   62  A    between atoms: _190  and  _193
REMARK   63  A    between atoms: _193  and  _194
REMARK   64  A    between atoms: _197  and  _199
REMARK   65  A    between atoms: _199  and  _200
REMARK   66  A    between atoms: _199  and  _202
REMARK   67  A    between atoms: _202  and  _203
REMARK   68  A    between atoms: _204  and  ZN_424
REMARK   69  A    between atoms: _208  and  _210
REMARK   70  A    between atoms: _210  and  _211
REMARK   71  A    between atoms: _210  and  _213
REMARK   72  A    between atoms: _213  and  _214
REMARK   73  A    between atoms: _217  and  _219
REMARK   74  A    between atoms: _219  and  _220
REMARK   75  A    between atoms: _219  and  _222
REMARK   76  A    between atoms: _225  and  _227
REMARK   77  A    between atoms: _227  and  _228
REMARK   78  A    between atoms: _227  and  _230
REMARK   79  A    between atoms: _230  and  _231
REMARK   80  A    between atoms: _236  and  _238
REMARK   81  A    between atoms: _238  and  _239
REMARK   82  A    between atoms: _238  and  _241
REMARK   83  A    between atoms: _241  and  _242
REMARK   84  A    between atoms: _248  and  _250
REMARK   85  A    between atoms: _250  and  _251
REMARK   86  A    between atoms: _250  and  _253
REMARK   87  A    between atoms: _256  and  _258
REMARK   88  A    between atoms: _258  and  _259
REMARK   89  A    between atoms: _258  and  _261
REMARK   90  A    between atoms: _261  and  _262
REMARK   91  A    between atoms: _265  and  _267
REMARK   92  A    between atoms: _267  and  _268
REMARK   93  A    between atoms: _271  and  _273
REMARK   94  A    between atoms: _273  and  _274
REMARK   95  A    between atoms: _273  and  _276
REMARK   96  A    between atoms: _279  and  _281
REMARK   97  A    between atoms: _281  and  _282
REMARK   98  A    between atoms: _281  and  _284
REMARK   99  A    between atoms: _284  and  _285
REMARK  100  A    between atoms: _288  and  _290
REMARK  101  A    between atoms: _290  and  _291
REMARK  102  A    between atoms: _293  and  _295
REMARK  103  A    between atoms: _295  and  _296
REMARK  104  A    between atoms: _298  and  _300
REMARK  105  A    between atoms: _300  and  _301
REMARK  106  A    between atoms: _300  and  _303
REMARK  107  A    between atoms: _303  and  _304
REMARK  108  A    between atoms: _306  and  _308
REMARK  109  A    between atoms: _308  and  _309
REMARK  110  A    between atoms: _308  and  _311
REMARK  111  A    between atoms: _311  and  _312
REMARK  112  A    between atoms: _315  and  _317
REMARK  113  A    between atoms: _317  and  _318
REMARK  114  A    between atoms: _317  and  _320
REMARK  115  A    between atoms: _320  and  _321
REMARK  116  A    between atoms: _324  and  _326
REMARK  117  A    between atoms: _326  and  _327
REMARK  118  A    between atoms: _326  and  _329
REMARK  119  A    between atoms: _329  and  _330
REMARK  120  A    between atoms: _334  and  _335
REMARK  121  A    between atoms: _341  and  _342
REMARK  122  A    between atoms: _347  and  _349
REMARK  123  A    between atoms: _349  and  _350
REMARK  124  A    between atoms: _349  and  _352
REMARK  125  A    between atoms: _352  and  _353
REMARK  126  A    between atoms: _356  and  _358
REMARK  127  A    between atoms: _358  and  _359
REMARK  128  A    between atoms: _358  and  _361
REMARK  129  A    between atoms: _361  and  _362
REMARK  130  A    between atoms: _365  and  _367
REMARK  131  A    between atoms: _367  and  _368
REMARK  132  A    between atoms: _367  and  _370
REMARK  133  A    between atoms: _372  and  _374
REMARK  134  A    between atoms: _374  and  _375
REMARK  135  A    between atoms: _374  and  _377
REMARK  136  A    between atoms: _380  and  _382
REMARK  137  A    between atoms: _382  and  _383
REMARK  138  A    between atoms: _382  and  _385
REMARK  139  A    between atoms: _385  and  _386
REMARK  140  A    between atoms: _396  and  _398
REMARK  141  A    between atoms: _398  and  _399
REMARK  142  A    between atoms: _398  and  _401
REMARK  143  A    between atoms: _401  and  _402
REMARK  144  A    between atoms: _407  and  _409
REMARK  145  A    between atoms: _409  and  _410
REMARK  146  A    between atoms: _409  and  _412
REMARK  147  A    between atoms: _412  and  _413
REMARK  148  A    between atoms: _413  and  _414
REMARK  149  A    between atoms: _414  and  _415
REMARK                            x       y       z     vdW  Elec       q    Type
REMARK                         _______ _______ _______ _____ _____    ______ ____
ROOT
ATOM      1  CA  THR A   5       0.085  -0.044  16.083  0.00  0.00    +0.176 C 
ENDROOT
BRANCH   1   2
ATOM      2  C   THR A   5       0.924   1.213  16.286  0.00  0.00    +0.246 C 
ATOM      3  O   THR A   5       0.453   2.194  16.865  0.00  0.00    -0.273 OA
ATOM      4  N   PRO A   6       2.186   1.195  15.833  0.00  0.00    -0.272 N 
ATOM      5  CA  PRO A   6       3.025   2.384  15.990  0.00  0.00    +0.152 C 
ATOM      6  CB  PRO A   6       4.239   2.048  15.135  0.00  0.00    +0.031 C 
ATOM      7  CG  PRO A   6       4.396   0.570  15.380  0.00  0.00    +0.024 C 
ATOM      8  CD  PRO A   6       2.960   0.066  15.283  0.00  0.00    +0.094 C 
BRANCH   5   9
ATOM      9  C   PRO A   6       2.227   3.568  15.442  0.00  0.00    +0.244 C 
ATOM     10  N   PRO A   7       2.384   4.761  16.035  0.00  0.00    -0.272 N 
ATOM     11  CA  PRO A   7       3.237   5.142  17.167  0.00  0.00    +0.152 C 
ATOM     12  CB  PRO A   7       3.265   6.663  17.067  0.00  0.00    +0.031 C 
ATOM     13  CG  PRO A   7       1.894   6.980  16.584  0.00  0.00    +0.024 C 
ATOM     14  CD  PRO A   7       1.669   5.938  15.502  0.00  0.00    +0.094 C 
ATOM     15  O   PRO A   6       1.498   3.424  14.455  0.00  0.00    -0.273 OA
BRANCH  11  16
ATOM     16  C   PRO A   7       2.878   4.660  18.583  0.00  0.00    +0.241 C 
ATOM     17  O   PRO A   7       3.508   5.087  19.549  0.00  0.00    -0.273 OA
ATOM     18  N   LEU A   8       1.876   3.791  18.706  0.00  0.00    -0.297 N 
ATOM     19  H   LEU A   8       1.359   3.497  17.853  0.00  0.00    +0.150 HD
BRANCH  18  20
ATOM     20  CA  LEU A   8       1.477   3.234  20.003  0.00  0.00    +0.149 C 
BRANCH  20  21
ATOM     21  C   LEU A   8       1.143   4.269  21.078  0.00  0.00    +0.241 C 
ATOM     22  O   LEU A   8       1.323   4.015  22.273  0.00  0.00    -0.273 OA
ATOM     23  N   LEU A   9       0.632   5.419  20.652  0.00  0.00    -0.298 N 
ATOM     24  H   LEU A   9       0.469   5.554  19.634  0.00  0.00    +0.150 HD
BRANCH  23  25
ATOM     25  CA  LEU A   9       0.294   6.497  21.575  0.00  0.00    +0.137 C 
BRANCH  25  26
ATOM     26  C   LEU A   9      -0.766   6.094  22.599  0.00  0.00    +0.227 C 
ATOM     27  O   LEU A   9      -1.771   5.465  22.269  0.00  0.00    -0.286 OA
ENDBRANCH  25  26
BRANCH  25  28
ATOM     28  CB  LEU A   9      -0.154   7.728  20.786  0.00  0.00    +0.028 C 
BRANCH  28  29
ATOM     29  CG  LEU A   9       0.881   8.229  19.768  0.00  0.00    +0.002 C 
ATOM     30  CD2 LEU A   9       2.156   8.660  20.483  0.00  0.00    +0.000 C 
ATOM     31  CD1 LEU A   9       0.297   9.379  18.967  0.00  0.00    +0.000 C 
ENDBRANCH  28  29
ENDBRANCH  25  28
ENDBRANCH  23  25
ENDBRANCH  20  21
BRANCH  20  32
ATOM     32  CB  LEU A   8       2.589   2.315  20.520  0.00  0.00    +0.029 C 
BRANCH  32  33
ATOM     33  CG  LEU A   8       3.005   1.194  19.564  0.00  0.00    +0.002 C 
ATOM     34  CD2 LEU A   8       4.291   0.549  20.069  0.00  0.00    +0.000 C 
ATOM     35  CD1 LEU A   8       1.884   0.163  19.454  0.00  0.00    +0.000 C 
ENDBRANCH  32  33
ENDBRANCH  20  32
ENDBRANCH  18  20
ENDBRANCH  11  16
ENDBRANCH   5   9
ENDBRANCH   1   2
BRANCH   1  38
ATOM     36  C   THR A   4      -0.994  -1.212  17.942  0.00  0.00    +0.243 C 
ATOM     37  O   THR A   4      -0.343  -2.244  17.764  0.00  0.00    -0.273 OA
ATOM     38  N   THR A   5      -0.873  -0.129  17.181  0.00  0.00    -0.295 N 
ATOM     39  H   THR A   5      -1.485   0.689  17.375  0.00  0.00    +0.150 HD
BRANCH  36  40
ATOM     40  CA  THR A   4      -2.018  -1.120  19.065  0.00  0.00    +0.176 C 
BRANCH  40  43
ATOM     41  C   LEU A   3      -2.231   1.165  19.824  0.00  0.00    +0.241 C 
ATOM     42  O   LEU A   3      -1.252   1.030  20.564  0.00  0.00    -0.273 OA
ATOM     43  N   THR A   4      -2.688   0.180  19.060  0.00  0.00    -0.295 N 
ATOM     44  H   THR A   4      -3.522   0.333  18.458  0.00  0.00    +0.150 HD
BRANCH  41  45
ATOM     45  CA  LEU A   3      -2.958   2.503  19.771  0.00  0.00    +0.149 C 
BRANCH  45  48
ATOM     46  C   SER A   2      -3.431   2.347  22.144  0.00  0.00    +0.243 C 
ATOM     47  O   SER A   2      -4.229   1.429  21.984  0.00  0.00    -0.273 OA
ATOM     48  N   LEU A   3      -2.806   2.957  21.143  0.00  0.00    -0.297 N 
ATOM     49  H   LEU A   3      -2.196   3.775  21.345  0.00  0.00    +0.150 HD
BRANCH  46  50
ATOM     50  CA  SER A   2      -3.083   2.857  23.530  0.00  0.00    +0.178 C 
BRANCH  50  53
ATOM     51  C   GLY A   1      -4.285   2.833  25.652  0.00  0.00    +0.240 C 
ATOM     52  O   GLY A   1      -4.190   4.053  25.791  0.00  0.00    -0.274 OA
ATOM     53  N   SER A   2      -3.831   2.185  24.584  0.00  0.00    -0.295 N 
ATOM     54  H   SER A   2      -4.016   1.165  24.498  0.00  0.00    +0.150 HD
BRANCH  51  55
ATOM     55  CA  GLY A   1      -4.982   1.971  26.691  0.00  0.00    +0.169 C 
BRANCH  55  56
ATOM     56  N   GLY A   1      -6.036   2.603  27.463  0.00  0.00    -0.236 NA
ATOM     57  H   GLY A   1      -6.681   3.277  27.003  0.00  0.00    +0.142 HD
ENDBRANCH  55  56
ENDBRANCH  51  55
ENDBRANCH  50  53
BRANCH  50  58
ATOM     58  CB  SER A   2      -1.598   2.584  23.728  0.00  0.00    +0.166 C 
BRANCH  58  59
ATOM     59  OG  SER A   2      -1.315   1.228  23.377  0.00  0.00    -0.380 OA
ATOM     60  H   SER A   2      -1.556   1.076  22.429  0.00  0.00    +0.211 HD
ENDBRANCH  58  59
ENDBRANCH  50  58
ENDBRANCH  46  50
ENDBRANCH  45  48
BRANCH  45  61
ATOM     61  CB  LEU A   3      -2.202   3.419  18.808  0.00  0.00    +0.029 C 
BRANCH  61  62
ATOM     62  CG  LEU A   3      -2.898   4.601  18.136  0.00  0.00    +0.002 C 
ATOM     63  CD2 LEU A   3      -3.541   5.514  19.155  0.00  0.00    +0.000 C 
ATOM     64  CD1 LEU A   3      -1.855   5.350  17.316  0.00  0.00    +0.000 C 
ENDBRANCH  61  62
ENDBRANCH  45  61
ENDBRANCH  41  45
ENDBRANCH  40  43
BRANCH  40  65
ATOM     65  CB  THR A   4      -3.007  -2.277  18.910  0.00  0.00    +0.137 C 
ATOM     66  CG2 THR A   4      -4.034  -2.245  20.033  0.00  0.00    +0.034 C 
BRANCH  65  67
ATOM     67  OG1 THR A   4      -3.659  -2.187  17.637  0.00  0.00    -0.382 OA
ATOM     68  HG1 THR A   4      -4.298  -2.937  17.541  0.00  0.00    +0.210 HD
ENDBRANCH  65  67
ENDBRANCH  40  65
ENDBRANCH  36  40
ENDBRANCH   1  38
BRANCH   1  69
ATOM     69  CB  THR A   5      -0.621   0.091  14.705  0.00  0.00    +0.137 C 
ATOM     70  CG2 THR A   5      -1.222  -1.231  14.265  0.00  0.00    +0.034 C 
BRANCH  69  71
ATOM     71  OG1 THR A   5      -1.656   1.079  14.796  0.00  0.00    -0.382 OA
ATOM     72  HG1 THR A   5      -2.315   0.802  15.481  0.00  0.00    +0.210 HD
ENDBRANCH  69  71
ENDBRANCH   1  69
TORSDOF 28
REMARK  Name = ../refined-set-2016/3t5u/3t5u_pocket.pdb
REMARK  149 active torsions:
REMARK  status: ('A' for Active; 'I' for Inactive)
REMARK    1  A    between atoms: _1  and  _3
REMARK    2  A    between atoms: _3  and  _4
REMARK    3  A    between atoms: _3  and  _6
REMARK    4  A    between atoms: _6  and  _7
REMARK    5  A    between atoms: _17  and  _19
REMARK    6  A    between atoms: _19  and  _20
REMARK    7  A    between atoms: _19  and  _22
REMARK    8  A    between atoms: _22  and  _23
REMARK    9  A    between atoms: _28  and  _29
REMARK   10  A    between atoms: _31  and  _33
REMARK   11  A    between atoms: _33  and  _34
REMARK   12  A    between atoms: _33  and  _36
REMARK   13  A    between atoms: _36  and  _37
REMARK   14  A    between atoms: _47  and  _49
REMARK   15  A    between atoms: _49  and  _50
REMARK   16  A    between atoms: _49  and  _52
REMARK   17  A    between atoms: _52  and  _53
REMARK   18  A    between atoms: _56  and  _57
REMARK   19  A    between atoms: _62  and  _64
REMARK   20  A    between atoms: _64  and  _65
REMARK   21  A    between atoms: _64  and  _67
REMARK   22  A    between atoms: _67  and  _68
REMARK   23  A    between atoms: _73  and  _75
REMARK   24  A    between atoms: _75  and  _76
REMARK   25  A    between atoms: _79  and  _81
REMARK   26  A    between atoms: _81  and  _82
REMARK   27  A    between atoms: _81  and  _84
REMARK   28  A    between atoms: _84  and  _85
REMARK   29  A    between atoms: _90  and  _92
REMARK   30  A    between atoms: _92  and  _93
REMARK   31  A    between atoms: _92  and  _95
REMARK   32  A    between atoms: _95  and  _96
REMARK   33  A    between atoms: _99  and  _101
REMARK   34  A    between atoms: _101  and  _102
REMARK   35  A    between atoms: _101  and  _104
REMARK   36  A    between atoms: _104  and  _105
REMARK   37  A    between atoms: _105  and  _106
REMARK   38  A    between atoms: _111  and  _113
REMARK   39  A    between atoms: _113  and  _114
REMARK   40  A    between atoms: _113  and  _116
REMARK   41  A    between atoms: _116  and  _117
REMARK   42  A    between atoms: _123  and  _125
REMARK   43  A    between atoms: _136  and  _139
REMARK   44  A    between atoms: _139  and  _140
REMARK   45  A    between atoms: _148  and  _149
REMARK   46  A    between atoms: _157  and  _159
REMARK   47  A    between atoms: _159  and  _160
REMARK   48  A    between atoms: _159  and  _162
REMARK   49  A    between atoms: _162  and  _163
REMARK   50  A    between atoms: _163  and  _164
REMARK   51  A    between atoms: _167  and  _169
REMARK   52  A    between atoms: _169  and  _170
REMARK   53  A    between atoms: _169  and  _172
REMARK   54  A    between atoms: _172  and  _173
REMARK   55  A    between atoms: _178  and  _180
REMARK   56  A    between atoms: _180  and  _181
REMARK   57  A    between atoms: _180  and  _183
REMARK   58  A    between atoms: _183  and  _184
REMARK   59  A    between atoms: _184  and  _185
REMARK   60  A    between atoms: _188  and  _190
REMARK   61  A    between atoms: _190  and  _191
REMARK   62  A    between atoms: _190  and  _193
REMARK   63  A    between atoms: _193  and  _194
REMARK   64  A    between atoms: _197  and  _199
REMARK   65  A    between atoms: _199  and  _200
REMARK   66  A    between atoms: _199  and  _202
REMARK   67  A    between atoms: _202  and  _203
REMARK   68  A    between atoms: _204  and  ZN_424
REMARK   69  A    between atoms: _208  and  _210
REMARK   70  A    between atoms: _210  and  _211
REMARK   71  A    between atoms: _210  and  _213
REMARK   72  A    between atoms: _213  and  _214
REMARK   73  A    between atoms: _217  and  _219
REMARK   74  A    between atoms: _219  and  _220
REMARK   75  A    between atoms: _219  and  _222
REMARK   76  A    between atoms: _225  and  _227
REMARK   77  A    between atoms: _227  and  _228
REMARK   78  A    between atoms: _227  and  _230
REMARK   79  A    between atoms: _230  and  _231
REMARK   80  A    between atoms: _236  and  _238
REMARK   81  A    between atoms: _238  and  _239
REMARK   82  A    between atoms: _238  and  _241
REMARK   83  A    between atoms: _241  and  _242
REMARK   84  A    between atoms: _248  and  _250
REMARK   85  A    between atoms: _250  and  _251
REMARK   86  A    between atoms: _250  and  _253
REMARK   87  A    between atoms: _256  and  _258
REMARK   88  A    between atoms: _258  and  _259
REMARK   89  A    between atoms: _258  and  _261
REMARK   90  A    between atoms: _261  and  _262
REMARK   91  A    between atoms: _265  and  _267
REMARK   92  A    between atoms: _267  and  _268
REMARK   93  A    between atoms: _271  and  _273
REMARK   94  A    between atoms: _273  and  _274
REMARK   95  A    between atoms: _273  and  _276
REMARK   96  A    between atoms: _279  and  _281
REMARK   97  A    between atoms: _281  and  _282
REMARK   98  A    between atoms: _281  and  _284
REMARK   99  A    between atoms: _284  and  _285
REMARK  100  A    between atoms: _288  and  _290
REMARK  101  A    between atoms: _290  and  _291
REMARK  102  A    between atoms: _293  and  _295
REMARK  103  A    between atoms: _295  and  _296
REMARK  104  A    between atoms: _298  and  _300
REMARK  105  A    between atoms: _300  and  _301
REMARK  106  A    between atoms: _300  and  _303
REMARK  107  A    between atoms: _303  and  _304
REMARK  108  A    between atoms: _306  and  _308
REMARK  109  A    between atoms: _308  and  _309
REMARK  110  A    between atoms: _308  and  _311
REMARK  111  A    between atoms: _311  and  _312
REMARK  112  A    between atoms: _315  and  _317
REMARK  113  A    between atoms: _317  and  _318
REMARK  114  A    between atoms: _317  and  _320
REMARK  115  A    between atoms: _320  and  _321
REMARK  116  A    between atoms: _324  and  _326
REMARK  117  A    between atoms: _326  and  _327
REMARK  118  A    between atoms: _326  and  _329
REMARK  119  A    between atoms: _329  and  _330
REMARK  120  A    between atoms: _334  and  _335
REMARK  121  A    between atoms: _341  and  _342
REMARK  122  A    between atoms: _347  and  _349
REMARK  123  A    between atoms: _349  and  _350
REMARK  124  A    between atoms: _349  and  _352
REMARK  125  A    between atoms: _352  and  _353
REMARK  126  A    between atoms: _356  and  _358
REMARK  127  A    between atoms: _358  and  _359
REMARK  128  A    between atoms: _358  and  _361
REMARK  129  A    between atoms: _361  and  _362
REMARK  130  A    between atoms: _365  and  _367
REMARK  131  A    between atoms: _367  and  _368
REMARK  132  A    between atoms: _367  and  _370
REMARK  133  A    between atoms: _372  and  _374
REMARK  134  A    between atoms: _374  and  _375
REMARK  135  A    between atoms: _374  and  _377
REMARK  136  A    between atoms: _380  and  _382
REMARK  137  A    between atoms: _382  and  _383
REMARK  138  A    between atoms: _382  and  _385
REMARK  139  A    between atoms: _385  and  _386
REMARK  140  A    between atoms: _396  and  _398
REMARK  141  A    between atoms: _398  and  _399
REMARK  142  A    between atoms: _398  and  _401
REMARK  143  A    between atoms: _401  and  _402
REMARK  144  A    between atoms: _407  and  _409
REMARK  145  A    between atoms: _409  and  _410
REMARK  146  A    between atoms: _409  and  _412
REMARK  147  A    between atoms: _412  and  _413
REMARK  148  A    between atoms: _413  and  _414
REMARK  149  A    between atoms: _414  and  _415
REMARK                            x       y       z     vdW  Elec       q    Type
REMARK                         _______ _______ _______ _____ _____    ______ ____
ROOT
ATOM      1  C   CYS A   1      -5.914   7.530  24.015  0.00  0.00    +0.239 C 
ATOM      2  N   VAL A   2      -5.978   6.212  24.161  0.00  0.00    -0.298 N 
ATOM      3  H   VAL A   2      -5.130   5.681  24.444  0.00  0.00    +0.150 HD
ATOM      4  O   CYS A   1      -6.908   8.225  23.796  0.00  0.00    -0.274 OA
ENDROOT
BRANCH   1   5
ATOM      5  CA  CYS A   1      -4.547   8.177  24.172  0.00  0.00    +0.156 C 
BRANCH   5   6
ATOM      6  N   CYS A   1      -3.448   7.209  24.150  0.00  0.00    -0.237 NA
ATOM      7  H   CYS A   1      -3.373   6.546  23.352  0.00  0.00    +0.142 HD
ENDBRANCH   5   6
BRANCH   5   8
ATOM      8  CB  CYS A   1      -4.367   9.188  23.029  0.00  0.00    +0.095 C 
ATOM      9  SG  CYS A   1      -2.644   9.593  22.585  0.00  0.00    -0.080 S 
ENDBRANCH   5   8
ENDBRANCH   1   5
BRANCH   2  10
ATOM     10  CA  VAL A   2      -7.230   5.505  23.927  0.00  0.00    +0.137 C 
BRANCH  10  11
ATOM     11  CB  VAL A   2      -6.992   4.299  22.983  0.00  0.00    +0.026 C 
ATOM     12  CG2 VAL A   2      -8.331   3.652  22.604  0.00  0.00    +0.002 C 
ATOM     13  CG1 VAL A   2      -6.225   4.746  21.741  0.00  0.00    +0.002 C 
ENDBRANCH  10  11
BRANCH  10  14
ATOM     14  C   VAL A   2      -8.032   4.971  25.098  0.00  0.00    +0.227 C 
ATOM     15  O   VAL A   2      -7.494   4.348  26.010  0.00  0.00    -0.286 OA
ENDBRANCH  10  14
ENDBRANCH   2  10
TORSDOF 6
REMARK  Name = ../refined-set-2016/3t5u/3t5u_pocket.pdb
REMARK  149 active torsions:
REMARK  status: ('A' for Active; 'I' for Inactive)
REMARK    1  A    between atoms: _1  and  _3
REMARK    2  A    between atoms: _3  and  _4
REMARK    3  A    between atoms: _3  and  _6
REMARK    4  A    between atoms: _6  and  _7
REMARK    5  A    between atoms: _17  and  _19
REMARK    6  A    between atoms: _19  and  _20
REMARK    7  A    between atoms: _19  and  _22
REMARK    8  A    between atoms: _22  and  _23
REMARK    9  A    between atoms: _28  and  _29
REMARK   10  A    between atoms: _31  and  _33
REMARK   11  A    between atoms: _33  and  _34
REMARK   12  A    between atoms: _33  and  _36
REMARK   13  A    between atoms: _36  and  _37
REMARK   14  A    between atoms: _47  and  _49
REMARK   15  A    between atoms: _49  and  _50
REMARK   16  A    between atoms: _49  and  _52
REMARK   17  A    between atoms: _52  and  _53
REMARK   18  A    between atoms: _56  and  _57
REMARK   19  A    between atoms: _62  and  _64
REMARK   20  A    between atoms: _64  and  _65
REMARK   21  A    between atoms: _64  and  _67
REMARK   22  A    between atoms: _67  and  _68
REMARK   23  A    between atoms: _73  and  _75
REMARK   24  A    between atoms: _75  and  _76
REMARK   25  A    between atoms: _79  and  _81
REMARK   26  A    between atoms: _81  and  _82
REMARK   27  A    between atoms: _81  and  _84
REMARK   28  A    between atoms: _84  and  _85
REMARK   29  A    between atoms: _90  and  _92
REMARK   30  A    between atoms: _92  and  _93
REMARK   31  A    between atoms: _92  and  _95
REMARK   32  A    between atoms: _95  and  _96
REMARK   33  A    between atoms: _99  and  _101
REMARK   34  A    between atoms: _101  and  _102
REMARK   35  A    between atoms: _101  and  _104
REMARK   36  A    between atoms: _104  and  _105
REMARK   37  A    between atoms: _105  and  _106
REMARK   38  A    between atoms: _111  and  _113
REMARK   39  A    between atoms: _113  and  _114
REMARK   40  A    between atoms: _113  and  _116
REMARK   41  A    between atoms: _116  and  _117
REMARK   42  A    between atoms: _123  and  _125
REMARK   43  A    between atoms: _136  and  _139
REMARK   44  A    between atoms: _139  and  _140
REMARK   45  A    between atoms: _148  and  _149
REMARK   46  A    between atoms: _157  and  _159
REMARK   47  A    between atoms: _159  and  _160
REMARK   48  A    between atoms: _159  and  _162
REMARK   49  A    between atoms: _162  and  _163
REMARK   50  A    between atoms: _163  and  _164
REMARK   51  A    between atoms: _167  and  _169
REMARK   52  A    between atoms: _169  and  _170
REMARK   53  A    between atoms: _169  and  _172
REMARK   54  A    between atoms: _172  and  _173
REMARK   55  A    between atoms: _178  and  _180
REMARK   56  A    between atoms: _180  and  _181
REMARK   57  A    between atoms: _180  and  _183
REMARK   58  A    between atoms: _183  and  _184
REMARK   59  A    between atoms: _184  and  _185
REMARK   60  A    between atoms: _188  and  _190
REMARK   61  A    between atoms: _190  and  _191
REMARK   62  A    between atoms: _190  and  _193
REMARK   63  A    between atoms: _193  and  _194
REMARK   64  A    between atoms: _197  and  _199
REMARK   65  A    between atoms: _199  and  _200
REMARK   66  A    between atoms: _199  and  _202
REMARK   67  A    between atoms: _202  and  _203
REMARK   68  A    between atoms: _204  and  ZN_424
REMARK   69  A    between atoms: _208  and  _210
REMARK   70  A    between atoms: _210  and  _211
REMARK   71  A    between atoms: _210  and  _213
REMARK   72  A    between atoms: _213  and  _214
REMARK   73  A    between atoms: _217  and  _219
REMARK   74  A    between atoms: _219  and  _220
REMARK   75  A    between atoms: _219  and  _222
REMARK   76  A    between atoms: _225  and  _227
REMARK   77  A    between atoms: _227  and  _228
REMARK   78  A    between atoms: _227  and  _230
REMARK   79  A    between atoms: _230  and  _231
REMARK   80  A    between atoms: _236  and  _238
REMARK   81  A    between atoms: _238  and  _239
REMARK   82  A    between atoms: _238  and  _241
REMARK   83  A    between atoms: _241  and  _242
REMARK   84  A    between atoms: _248  and  _250
REMARK   85  A    between atoms: _250  and  _251
REMARK   86  A    between atoms: _250  and  _253
REMARK   87  A    between atoms: _256  and  _258
REMARK   88  A    between atoms: _258  and  _259
REMARK   89  A    between atoms: _258  and  _261
REMARK   90  A    between atoms: _261  and  _262
REMARK   91  A    between atoms: _265  and  _267
REMARK   92  A    between atoms: _267  and  _268
REMARK   93  A    between atoms: _271  and  _273
REMARK   94  A    between atoms: _273  and  _274
REMARK   95  A    between atoms: _273  and  _276
REMARK   96  A    between atoms: _279  and  _281
REMARK   97  A    between atoms: _281  and  _282
REMARK   98  A    between atoms: _281  and  _284
REMARK   99  A    between atoms: _284  and  _285
REMARK  100  A    between atoms: _288  and  _290
REMARK  101  A    between atoms: _290  and  _291
REMARK  102  A    between atoms: _293  and  _295
REMARK  103  A    between atoms: _295  and  _296
REMARK  104  A    between atoms: _298  and  _300
REMARK  105  A    between atoms: _300  and  _301
REMARK  106  A    between atoms: _300  and  _303
REMARK  107  A    between atoms: _303  and  _304
REMARK  108  A    between atoms: _306  and  _308
REMARK  109  A    between atoms: _308  and  _309
REMARK  110  A    between atoms: _308  and  _311
REMARK  111  A    between atoms: _311  and  _312
REMARK  112  A    between atoms: _315  and  _317
REMARK  113  A    between atoms: _317  and  _318
REMARK  114  A    between atoms: _317  and  _320
REMARK  115  A    between atoms: _320  and  _321
REMARK  116  A    between atoms: _324  and  _326
REMARK  117  A    between atoms: _326  and  _327
REMARK  118  A    between atoms: _326  and  _329
REMARK  119  A    between atoms: _329  and  _330
REMARK  120  A    between atoms: _334  and  _335
REMARK  121  A    between atoms: _341  and  _342
REMARK  122  A    between atoms: _347  and  _349
REMARK  123  A    between atoms: _349  and  _350
REMARK  124  A    between atoms: _349  and  _352
REMARK  125  A    between atoms: _352  and  _353
REMARK  126  A    between atoms: _356  and  _358
REMARK  127  A    between atoms: _358  and  _359
REMARK  128  A    between atoms: _358  and  _361
REMARK  129  A    between atoms: _361  and  _362
REMARK  130  A    between atoms: _365  and  _367
REMARK  131  A    between atoms: _367  and  _368
REMARK  132  A    between atoms: _367  and  _370
REMARK  133  A    between atoms: _372  and  _374
REMARK  134  A    between atoms: _374  and  _375
REMARK  135  A    between atoms: _374  and  _377
REMARK  136  A    between atoms: _380  and  _382
REMARK  137  A    between atoms: _382  and  _383
REMARK  138  A    between atoms: _382  and  _385
REMARK  139  A    between atoms: _385  and  _386
REMARK  140  A    between atoms: _396  and  _398
REMARK  141  A    between atoms: _398  and  _399
REMARK  142  A    between atoms: _398  and  _401
REMARK  143  A    between atoms: _401  and  _402
REMARK  144  A    between atoms: _407  and  _409
REMARK  145  A    between atoms: _409  and  _410
REMARK  146  A    between atoms: _409  and  _412
REMARK  147  A    between atoms: _412  and  _413
REMARK  148  A    between atoms: _413  and  _414
REMARK  149  A    between atoms: _414  and  _415
REMARK                            x       y       z     vdW  Elec       q    Type
REMARK                         _______ _______ _______ _____ _____    ______ ____
ROOT
ATOM      1  CG  TRP A   1      -8.763   0.046  24.093  0.00  0.00    -0.002 A 
ATOM      2  CD1 TRP A   1      -7.536   0.623  24.267  0.00  0.00    +0.068 A 
ATOM      3  NE1 TRP A   1      -6.818   0.563  23.098  0.00  0.00    -0.352 N 
ATOM      4  HE1 TRP A   1      -5.856   0.933  22.960  0.00  0.00    +0.166 HD
ATOM      5  CE2 TRP A   1      -7.576  -0.064  22.143  0.00  0.00    +0.056 A 
ATOM      6  CZ2 TRP A   1      -7.283  -0.357  20.806  0.00  0.00    +0.017 A 
ATOM      7  CH2 TRP A   1      -8.250  -0.999  20.072  0.00  0.00    +0.001 A 
ATOM      8  CZ3 TRP A   1      -9.489  -1.351  20.637  0.00  0.00    +0.000 A 
ATOM      9  CE3 TRP A   1      -9.778  -1.059  21.966  0.00  0.00    +0.001 A 
ATOM     10  CD2 TRP A   1      -8.809  -0.403  22.738  0.00  0.00    +0.013 A 
ENDROOT
BRANCH   1  11
ATOM     11  CB  TRP A   1      -9.872  -0.039  25.089  0.00  0.00    +0.053 C 
BRANCH  11  12
ATOM     12  CA  TRP A   1     -10.886   1.101  24.946  0.00  0.00    +0.137 C 
BRANCH  12  13
ATOM     13  N   TRP A   1     -10.426   2.281  25.654  0.00  0.00    -0.239 NA
ATOM     14  H   TRP A   1      -9.817   2.174  26.490  0.00  0.00    +0.142 HD
ENDBRANCH  12  13
BRANCH  12  15
ATOM     15  C   TRP A   1     -12.242   0.625  25.434  0.00  0.00    +0.224 C 
ATOM     16  O   TRP A   1     -12.500   0.569  26.632  0.00  0.00    -0.287 OA
ENDBRANCH  12  15
ENDBRANCH  11  12
ENDBRANCH   1  11
TORSDOF 4
REMARK  Name = ../refined-set-2016/3t5u/3t5u_pocket.pdb
REMARK  149 active torsions:
REMARK  status: ('A' for Active; 'I' for Inactive)
REMARK    1  A    between atoms: _1  and  _3
REMARK    2  A    between atoms: _3  and  _4
REMARK    3  A    between atoms: _3  and  _6
REMARK    4  A    between atoms: _6  and  _7
REMARK    5  A    between atoms: _17  and  _19
REMARK    6  A    between atoms: _19  and  _20
REMARK    7  A    between atoms: _19  and  _22
REMARK    8  A    between atoms: _22  and  _23
REMARK    9  A    between atoms: _28  and  _29
REMARK   10  A    between atoms: _31  and  _33
REMARK   11  A    between atoms: _33  and  _34
REMARK   12  A    between atoms: _33  and  _36
REMARK   13  A    between atoms: _36  and  _37
REMARK   14  A    between atoms: _47  and  _49
REMARK   15  A    between atoms: _49  and  _50
REMARK   16  A    between atoms: _49  and  _52
REMARK   17  A    between atoms: _52  and  _53
REMARK   18  A    between atoms: _56  and  _57
REMARK   19  A    between atoms: _62  and  _64
REMARK   20  A    between atoms: _64  and  _65
REMARK   21  A    between atoms: _64  and  _67
REMARK   22  A    between atoms: _67  and  _68
REMARK   23  A    between atoms: _73  and  _75
REMARK   24  A    between atoms: _75  and  _76
REMARK   25  A    between atoms: _79  and  _81
REMARK   26  A    between atoms: _81  and  _82
REMARK   27  A    between atoms: _81  and  _84
REMARK   28  A    between atoms: _84  and  _85
REMARK   29  A    between atoms: _90  and  _92
REMARK   30  A    between atoms: _92  and  _93
REMARK   31  A    between atoms: _92  and  _95
REMARK   32  A    between atoms: _95  and  _96
REMARK   33  A    between atoms: _99  and  _101
REMARK   34  A    between atoms: _101  and  _102
REMARK   35  A    between atoms: _101  and  _104
REMARK   36  A    between atoms: _104  and  _105
REMARK   37  A    between atoms: _105  and  _106
REMARK   38  A    between atoms: _111  and  _113
REMARK   39  A    between atoms: _113  and  _114
REMARK   40  A    between atoms: _113  and  _116
REMARK   41  A    between atoms: _116  and  _117
REMARK   42  A    between atoms: _123  and  _125
REMARK   43  A    between atoms: _136  and  _139
REMARK   44  A    between atoms: _139  and  _140
REMARK   45  A    between atoms: _148  and  _149
REMARK   46  A    between atoms: _157  and  _159
REMARK   47  A    between atoms: _159  and  _160
REMARK   48  A    between atoms: _159  and  _162
REMARK   49  A    between atoms: _162  and  _163
REMARK   50  A    between atoms: _163  and  _164
REMARK   51  A    between atoms: _167  and  _169
REMARK   52  A    between atoms: _169  and  _170
REMARK   53  A    between atoms: _169  and  _172
REMARK   54  A    between atoms: _172  and  _173
REMARK   55  A    between atoms: _178  and  _180
REMARK   56  A    between atoms: _180  and  _181
REMARK   57  A    between atoms: _180  and  _183
REMARK   58  A    between atoms: _183  and  _184
REMARK   59  A    between atoms: _184  and  _185
REMARK   60  A    between atoms: _188  and  _190
REMARK   61  A    between atoms: _190  and  _191
REMARK   62  A    between atoms: _190  and  _193
REMARK   63  A    between atoms: _193  and  _194
REMARK   64  A    between atoms: _197  and  _199
REMARK   65  A    between atoms: _199  and  _200
REMARK   66  A    between atoms: _199  and  _202
REMARK   67  A    between atoms: _202  and  _203
REMARK   68  A    between atoms: _204  and  ZN_424
REMARK   69  A    between atoms: _208  and  _210
REMARK   70  A    between atoms: _210  and  _211
REMARK   71  A    between atoms: _210  and  _213
REMARK   72  A    between atoms: _213  and  _214
REMARK   73  A    between atoms: _217  and  _219
REMARK   74  A    between atoms: _219  and  _220
REMARK   75  A    between atoms: _219  and  _222
REMARK   76  A    between atoms: _225  and  _227
REMARK   77  A    between atoms: _227  and  _228
REMARK   78  A    between atoms: _227  and  _230
REMARK   79  A    between atoms: _230  and  _231
REMARK   80  A    between atoms: _236  and  _238
REMARK   81  A    between atoms: _238  and  _239
REMARK   82  A    between atoms: _238  and  _241
REMARK   83  A    between atoms: _241  and  _242
REMARK   84  A    between atoms: _248  and  _250
REMARK   85  A    between atoms: _250  and  _251
REMARK   86  A    between atoms: _250  and  _253
REMARK   87  A    between atoms: _256  and  _258
REMARK   88  A    between atoms: _258  and  _259
REMARK   89  A    between atoms: _258  and  _261
REMARK   90  A    between atoms: _261  and  _262
REMARK   91  A    between atoms: _265  and  _267
REMARK   92  A    between atoms: _267  and  _268
REMARK   93  A    between atoms: _271  and  _273
REMARK   94  A    between atoms: _273  and  _274
REMARK   95  A    between atoms: _273  and  _276
REMARK   96  A    between atoms: _279  and  _281
REMARK   97  A    between atoms: _281  and  _282
REMARK   98  A    between atoms: _281  and  _284
REMARK   99  A    between atoms: _284  and  _285
REMARK  100  A    between atoms: _288  and  _290
REMARK  101  A    between atoms: _290  and  _291
REMARK  102  A    between atoms: _293  and  _295
REMARK  103  A    between atoms: _295  and  _296
REMARK  104  A    between atoms: _298  and  _300
REMARK  105  A    between atoms: _300  and  _301
REMARK  106  A    between atoms: _300  and  _303
REMARK  107  A    between atoms: _303  and  _304
REMARK  108  A    between atoms: _306  and  _308
REMARK  109  A    between atoms: _308  and  _309
REMARK  110  A    between atoms: _308  and  _311
REMARK  111  A    between atoms: _311  and  _312
REMARK  112  A    between atoms: _315  and  _317
REMARK  113  A    between atoms: _317  and  _318
REMARK  114  A    between atoms: _317  and  _320
REMARK  115  A    between atoms: _320  and  _321
REMARK  116  A    between atoms: _324  and  _326
REMARK  117  A    between atoms: _326  and  _327
REMARK  118  A    between atoms: _326  and  _329
REMARK  119  A    between atoms: _329  and  _330
REMARK  120  A    between atoms: _334  and  _335
REMARK  121  A    between atoms: _341  and  _342
REMARK  122  A    between atoms: _347  and  _349
REMARK  123  A    between atoms: _349  and  _350
REMARK  124  A    between atoms: _349  and  _352
REMARK  125  A    between atoms: _352  and  _353
REMARK  126  A    between atoms: _356  and  _358
REMARK  127  A    between atoms: _358  and  _359
REMARK  128  A    between atoms: _358  and  _361
REMARK  129  A    between atoms: _361  and  _362
REMARK  130  A    between atoms: _365  and  _367
REMARK  131  A    between atoms: _367  and  _368
REMARK  132  A    between atoms: _367  and  _370
REMARK  133  A    between atoms: _372  and  _374
REMARK  134  A    between atoms: _374  and  _375
REMARK  135  A    between atoms: _374  and  _377
REMARK  136  A    between atoms: _380  and  _382
REMARK  137  A    between atoms: _382  and  _383
REMARK  138  A    between atoms: _382  and  _385
REMARK  139  A    between atoms: _385  and  _386
REMARK  140  A    between atoms: _396  and  _398
REMARK  141  A    between atoms: _398  and  _399
REMARK  142  A    between atoms: _398  and  _401
REMARK  143  A    between atoms: _401  and  _402
REMARK  144  A    between atoms: _407  and  _409
REMARK  145  A    between atoms: _409  and  _410
REMARK  146  A    between atoms: _409  and  _412
REMARK  147  A    between atoms: _412  and  _413
REMARK  148  A    between atoms: _413  and  _414
REMARK  149  A    between atoms: _414  and  _415
REMARK                            x       y       z     vdW  Elec       q    Type
REMARK                         _______ _______ _______ _____ _____    ______ ____
ROOT
ATOM      1  CB  ASN A   1      -1.879  -7.378  10.455  0.00  0.00    +0.110 C 
ENDROOT
BRANCH   1   2
ATOM      2  CG  ASN A   1      -3.374  -7.553  10.288  0.00  0.00    +0.221 C 
ATOM      3  OD1 ASN A   1      -3.993  -8.386  10.951  0.00  0.00    -0.275 OA
ATOM      4  ND2 ASN A   1      -3.962  -6.769   9.393  0.00  0.00    -0.329 N 
ATOM      5 HD21 ASN A   1      -4.986  -6.844   9.229  0.00  0.00    +0.145 HD
ATOM      6 HD22 ASN A   1      -3.399  -6.079   8.856  0.00  0.00    +0.145 HD
ENDBRANCH   1   2
BRANCH   1   7
ATOM      7  CA  ASN A   1      -1.311  -8.229  11.593  0.00  0.00    +0.142 C 
BRANCH   7   8
ATOM      8  N   ASN A   1      -1.693  -9.621  11.418  0.00  0.00    -0.239 NA
ATOM      9  H   ASN A   1      -2.680  -9.850  11.182  0.00  0.00    +0.142 HD
ENDBRANCH   7   8
BRANCH   7  10
ATOM     10  C   ASN A   1      -1.870  -7.769  12.932  0.00  0.00    +0.225 C 
ATOM     11  O   ASN A   1      -2.442  -6.687  13.047  0.00  0.00    -0.287 OA
ENDBRANCH   7  10
ENDBRANCH   1   7
TORSDOF 4
REMARK  Name = ../refined-set-2016/3t5u/3t5u_pocket.pdb
REMARK  149 active torsions:
REMARK  status: ('A' for Active; 'I' for Inactive)
REMARK    1  A    between atoms: _1  and  _3
REMARK    2  A    between atoms: _3  and  _4
REMARK    3  A    between atoms: _3  and  _6
REMARK    4  A    between atoms: _6  and  _7
REMARK    5  A    between atoms: _17  and  _19
REMARK    6  A    between atoms: _19  and  _20
REMARK    7  A    between atoms: _19  and  _22
REMARK    8  A    between atoms: _22  and  _23
REMARK    9  A    between atoms: _28  and  _29
REMARK   10  A    between atoms: _31  and  _33
REMARK   11  A    between atoms: _33  and  _34
REMARK   12  A    between atoms: _33  and  _36
REMARK   13  A    between atoms: _36  and  _37
REMARK   14  A    between atoms: _47  and  _49
REMARK   15  A    between atoms: _49  and  _50
REMARK   16  A    between atoms: _49  and  _52
REMARK   17  A    between atoms: _52  and  _53
REMARK   18  A    between atoms: _56  and  _57
REMARK   19  A    between atoms: _62  and  _64
REMARK   20  A    between atoms: _64  and  _65
REMARK   21  A    between atoms: _64  and  _67
REMARK   22  A    between atoms: _67  and  _68
REMARK   23  A    between atoms: _73  and  _75
REMARK   24  A    between atoms: _75  and  _76
REMARK   25  A    between atoms: _79  and  _81
REMARK   26  A    between atoms: _81  and  _82
REMARK   27  A    between atoms: _81  and  _84
REMARK   28  A    between atoms: _84  and  _85
REMARK   29  A    between atoms: _90  and  _92
REMARK   30  A    between atoms: _92  and  _93
REMARK   31  A    between atoms: _92  and  _95
REMARK   32  A    between atoms: _95  and  _96
REMARK   33  A    between atoms: _99  and  _101
REMARK   34  A    between atoms: _101  and  _102
REMARK   35  A    between atoms: _101  and  _104
REMARK   36  A    between atoms: _104  and  _105
REMARK   37  A    between atoms: _105  and  _106
REMARK   38  A    between atoms: _111  and  _113
REMARK   39  A    between atoms: _113  and  _114
REMARK   40  A    between atoms: _113  and  _116
REMARK   41  A    between atoms: _116  and  _117
REMARK   42  A    between atoms: _123  and  _125
REMARK   43  A    between atoms: _136  and  _139
REMARK   44  A    between atoms: _139  and  _140
REMARK   45  A    between atoms: _148  and  _149
REMARK   46  A    between atoms: _157  and  _159
REMARK   47  A    between atoms: _159  and  _160
REMARK   48  A    between atoms: _159  and  _162
REMARK   49  A    between atoms: _162  and  _163
REMARK   50  A    between atoms: _163  and  _164
REMARK   51  A    between atoms: _167  and  _169
REMARK   52  A    between atoms: _169  and  _170
REMARK   53  A    between atoms: _169  and  _172
REMARK   54  A    between atoms: _172  and  _173
REMARK   55  A    between atoms: _178  and  _180
REMARK   56  A    between atoms: _180  and  _181
REMARK   57  A    between atoms: _180  and  _183
REMARK   58  A    between atoms: _183  and  _184
REMARK   59  A    between atoms: _184  and  _185
REMARK   60  A    between atoms: _188  and  _190
REMARK   61  A    between atoms: _190  and  _191
REMARK   62  A    between atoms: _190  and  _193
REMARK   63  A    between atoms: _193  and  _194
REMARK   64  A    between atoms: _197  and  _199
REMARK   65  A    between atoms: _199  and  _200
REMARK   66  A    between atoms: _199  and  _202
REMARK   67  A    between atoms: _202  and  _203
REMARK   68  A    between atoms: _204  and  ZN_424
REMARK   69  A    between atoms: _208  and  _210
REMARK   70  A    between atoms: _210  and  _211
REMARK   71  A    between atoms: _210  and  _213
REMARK   72  A    between atoms: _213  and  _214
REMARK   73  A    between atoms: _217  and  _219
REMARK   74  A    between atoms: _219  and  _220
REMARK   75  A    between atoms: _219  and  _222
REMARK   76  A    between atoms: _225  and  _227
REMARK   77  A    between atoms: _227  and  _228
REMARK   78  A    between atoms: _227  and  _230
REMARK   79  A    between atoms: _230  and  _231
REMARK   80  A    between atoms: _236  and  _238
REMARK   81  A    between atoms: _238  and  _239
REMARK   82  A    between atoms: _238  and  _241
REMARK   83  A    between atoms: _241  and  _242
REMARK   84  A    between atoms: _248  and  _250
REMARK   85  A    between atoms: _250  and  _251
REMARK   86  A    between atoms: _250  and  _253
REMARK   87  A    between atoms: _256  and  _258
REMARK   88  A    between atoms: _258  and  _259
REMARK   89  A    between atoms: _258  and  _261
REMARK   90  A    between atoms: _261  and  _262
REMARK   91  A    between atoms: _265  and  _267
REMARK   92  A    between atoms: _267  and  _268
REMARK   93  A    between atoms: _271  and  _273
REMARK   94  A    between atoms: _273  and  _274
REMARK   95  A    between atoms: _273  and  _276
REMARK   96  A    between atoms: _279  and  _281
REMARK   97  A    between atoms: _281  and  _282
REMARK   98  A    between atoms: _281  and  _284
REMARK   99  A    between atoms: _284  and  _285
REMARK  100  A    between atoms: _288  and  _290
REMARK  101  A    between atoms: _290  and  _291
REMARK  102  A    between atoms: _293  and  _295
REMARK  103  A    between atoms: _295  and  _296
REMARK  104  A    between atoms: _298  and  _300
REMARK  105  A    between atoms: _300  and  _301
REMARK  106  A    between atoms: _300  and  _303
REMARK  107  A    between atoms: _303  and  _304
REMARK  108  A    between atoms: _306  and  _308
REMARK  109  A    between atoms: _308  and  _309
REMARK  110  A    between atoms: _308  and  _311
REMARK  111  A    between atoms: _311  and  _312
REMARK  112  A    between atoms: _315  and  _317
REMARK  113  A    between atoms: _317  and  _318
REMARK  114  A    between atoms: _317  and  _320
REMARK  115  A    between atoms: _320  and  _321
REMARK  116  A    between atoms: _324  and  _326
REMARK  117  A    between atoms: _326  and  _327
REMARK  118  A    between atoms: _326  and  _329
REMARK  119  A    between atoms: _329  and  _330
REMARK  120  A    between atoms: _334  and  _335
REMARK  121  A    between atoms: _341  and  _342
REMARK  122  A    between atoms: _347  and  _349
REMARK  123  A    between atoms: _349  and  _350
REMARK  124  A    between atoms: _349  and  _352
REMARK  125  A    between atoms: _352  and  _353
REMARK  126  A    between atoms: _356  and  _358
REMARK  127  A    between atoms: _358  and  _359
REMARK  128  A    between atoms: _358  and  _361
REMARK  129  A    between atoms: _361  and  _362
REMARK  130  A    between atoms: _365  and  _367
REMARK  131  A    between atoms: _367  and  _368
REMARK  132  A    between atoms: _367  and  _370
REMARK  133  A    between atoms: _372  and  _374
REMARK  134  A    between atoms: _374  and  _375
REMARK  135  A    between atoms: _374  and  _377
REMARK  136  A    between atoms: _380  and  _382
REMARK  137  A    between atoms: _382  and  _383
REMARK  138  A    between atoms: _382  and  _385
REMARK  139  A    between atoms: _385  and  _386
REMARK  140  A    between atoms: _396  and  _398
REMARK  141  A    between atoms: _398  and  _399
REMARK  142  A    between atoms: _398  and  _401
REMARK  143  A    between atoms: _401  and  _402
REMARK  144  A    between atoms: _407  and  _409
REMARK  145  A    between atoms: _409  and  _410
REMARK  146  A    between atoms: _409  and  _412
REMARK  147  A    between atoms: _412  and  _413
REMARK  148  A    between atoms: _413  and  _414
REMARK  149  A    between atoms: _414  and  _415
REMARK                            x       y       z     vdW  Elec       q    Type
REMARK                         _______ _______ _______ _____ _____    ______ ____
ROOT
ATOM      1  NE  ARG A   1       2.255  -3.860  21.130  0.00  0.00    +0.330 N 
ATOM      2  CZ  ARG A   1       2.424  -2.829  21.952  0.00  0.00    +0.000 C 
ATOM      3  NH2 ARG A   1       3.609  -2.621  22.515  0.00  0.00    +0.330 N 
ATOM      4 HH21 ARG A   1       3.745  -1.815  23.159  0.00  0.00    +0.000 HD
ATOM      5 HH22 ARG A   1       4.401  -3.264  22.312  0.00  0.00    +0.000 HD
ATOM      6  NH1 ARG A   1       1.421  -1.998  22.205  0.00  0.00    +0.330 N 
ATOM      7 HH11 ARG A   1       1.562  -1.194  22.849  0.00  0.00    +0.000 HD
ATOM      8 HH12 ARG A   1       0.494  -2.151  21.759  0.00  0.00    +0.000 HD
ATOM      9  HE  ARG A   1       3.069  -4.486  20.969  0.00  0.00    +0.000 HD
ENDROOT
BRANCH   1  10
ATOM     10  CD  ARG A   1       1.005  -4.178  20.435  0.00  0.00    +0.000 C 
BRANCH  10  11
ATOM     11  CG  ARG A   1       1.086  -5.541  19.762  0.00  0.00    +0.000 C 
BRANCH  11  12
ATOM     12  CB  ARG A   1      -0.035  -5.762  18.757  0.00  0.00    +0.000 C 
BRANCH  12  13
ATOM     13  CA  ARG A   1      -0.138  -7.213  18.279  0.00  0.00    +0.000 C 
BRANCH  13  14
ATOM     14  N   ARG A   1      -1.146  -7.348  17.241  0.00  0.00    +0.000 NA
ATOM     15  H   ARG A   1      -1.973  -6.717  17.248  0.00  0.00    +0.000 HD
ENDBRANCH  13  14
BRANCH  13  16
ATOM     16  C   ARG A   1      -0.608  -8.088  19.433  0.00  0.00    +0.000 C 
ATOM     17  O   ARG A   1      -1.790  -8.083  19.777  0.00  0.00    +0.000 OA
ENDBRANCH  13  16
ENDBRANCH  12  13
ENDBRANCH  11  12
ENDBRANCH  10  11
ENDBRANCH   1  10
TORSDOF 6
REMARK  Name = ../refined-set-2016/3t5u/3t5u_pocket.pdb
REMARK  149 active torsions:
REMARK  status: ('A' for Active; 'I' for Inactive)
REMARK    1  A    between atoms: _1  and  _3
REMARK    2  A    between atoms: _3  and  _4
REMARK    3  A    between atoms: _3  and  _6
REMARK    4  A    between atoms: _6  and  _7
REMARK    5  A    between atoms: _17  and  _19
REMARK    6  A    between atoms: _19  and  _20
REMARK    7  A    between atoms: _19  and  _22
REMARK    8  A    between atoms: _22  and  _23
REMARK    9  A    between atoms: _28  and  _29
REMARK   10  A    between atoms: _31  and  _33
REMARK   11  A    between atoms: _33  and  _34
REMARK   12  A    between atoms: _33  and  _36
REMARK   13  A    between atoms: _36  and  _37
REMARK   14  A    between atoms: _47  and  _49
REMARK   15  A    between atoms: _49  and  _50
REMARK   16  A    between atoms: _49  and  _52
REMARK   17  A    between atoms: _52  and  _53
REMARK   18  A    between atoms: _56  and  _57
REMARK   19  A    between atoms: _62  and  _64
REMARK   20  A    between atoms: _64  and  _65
REMARK   21  A    between atoms: _64  and  _67
REMARK   22  A    between atoms: _67  and  _68
REMARK   23  A    between atoms: _73  and  _75
REMARK   24  A    between atoms: _75  and  _76
REMARK   25  A    between atoms: _79  and  _81
REMARK   26  A    between atoms: _81  and  _82
REMARK   27  A    between atoms: _81  and  _84
REMARK   28  A    between atoms: _84  and  _85
REMARK   29  A    between atoms: _90  and  _92
REMARK   30  A    between atoms: _92  and  _93
REMARK   31  A    between atoms: _92  and  _95
REMARK   32  A    between atoms: _95  and  _96
REMARK   33  A    between atoms: _99  and  _101
REMARK   34  A    between atoms: _101  and  _102
REMARK   35  A    between atoms: _101  and  _104
REMARK   36  A    between atoms: _104  and  _105
REMARK   37  A    between atoms: _105  and  _106
REMARK   38  A    between atoms: _111  and  _113
REMARK   39  A    between atoms: _113  and  _114
REMARK   40  A    between atoms: _113  and  _116
REMARK   41  A    between atoms: _116  and  _117
REMARK   42  A    between atoms: _123  and  _125
REMARK   43  A    between atoms: _136  and  _139
REMARK   44  A    between atoms: _139  and  _140
REMARK   45  A    between atoms: _148  and  _149
REMARK   46  A    between atoms: _157  and  _159
REMARK   47  A    between atoms: _159  and  _160
REMARK   48  A    between atoms: _159  and  _162
REMARK   49  A    between atoms: _162  and  _163
REMARK   50  A    between atoms: _163  and  _164
REMARK   51  A    between atoms: _167  and  _169
REMARK   52  A    between atoms: _169  and  _170
REMARK   53  A    between atoms: _169  and  _172
REMARK   54  A    between atoms: _172  and  _173
REMARK   55  A    between atoms: _178  and  _180
REMARK   56  A    between atoms: _180  and  _181
REMARK   57  A    between atoms: _180  and  _183
REMARK   58  A    between atoms: _183  and  _184
REMARK   59  A    between atoms: _184  and  _185
REMARK   60  A    between atoms: _188  and  _190
REMARK   61  A    between atoms: _190  and  _191
REMARK   62  A    between atoms: _190  and  _193
REMARK   63  A    between atoms: _193  and  _194
REMARK   64  A    between atoms: _197  and  _199
REMARK   65  A    between atoms: _199  and  _200
REMARK   66  A    between atoms: _199  and  _202
REMARK   67  A    between atoms: _202  and  _203
REMARK   68  A    between atoms: _204  and  ZN_424
REMARK   69  A    between atoms: _208  and  _210
REMARK   70  A    between atoms: _210  and  _211
REMARK   71  A    between atoms: _210  and  _213
REMARK   72  A    between atoms: _213  and  _214
REMARK   73  A    between atoms: _217  and  _219
REMARK   74  A    between atoms: _219  and  _220
REMARK   75  A    between atoms: _219  and  _222
REMARK   76  A    between atoms: _225  and  _227
REMARK   77  A    between atoms: _227  and  _228
REMARK   78  A    between atoms: _227  and  _230
REMARK   79  A    between atoms: _230  and  _231
REMARK   80  A    between atoms: _236  and  _238
REMARK   81  A    between atoms: _238  and  _239
REMARK   82  A    between atoms: _238  and  _241
REMARK   83  A    between atoms: _241  and  _242
REMARK   84  A    between atoms: _248  and  _250
REMARK   85  A    between atoms: _250  and  _251
REMARK   86  A    between atoms: _250  and  _253
REMARK   87  A    between atoms: _256  and  _258
REMARK   88  A    between atoms: _258  and  _259
REMARK   89  A    between atoms: _258  and  _261
REMARK   90  A    between atoms: _261  and  _262
REMARK   91  A    between atoms: _265  and  _267
REMARK   92  A    between atoms: _267  and  _268
REMARK   93  A    between atoms: _271  and  _273
REMARK   94  A    between atoms: _273  and  _274
REMARK   95  A    between atoms: _273  and  _276
REMARK   96  A    between atoms: _279  and  _281
REMARK   97  A    between atoms: _281  and  _282
REMARK   98  A    between atoms: _281  and  _284
REMARK   99  A    between atoms: _284  and  _285
REMARK  100  A    between atoms: _288  and  _290
REMARK  101  A    between atoms: _290  and  _291
REMARK  102  A    between atoms: _293  and  _295
REMARK  103  A    between atoms: _295  and  _296
REMARK  104  A    between atoms: _298  and  _300
REMARK  105  A    between atoms: _300  and  _301
REMARK  106  A    between atoms: _300  and  _303
REMARK  107  A    between atoms: _303  and  _304
REMARK  108  A    between atoms: _306  and  _308
REMARK  109  A    between atoms: _308  and  _309
REMARK  110  A    between atoms: _308  and  _311
REMARK  111  A    between atoms: _311  and  _312
REMARK  112  A    between atoms: _315  and  _317
REMARK  113  A    between atoms: _317  and  _318
REMARK  114  A    between atoms: _317  and  _320
REMARK  115  A    between atoms: _320  and  _321
REMARK  116  A    between atoms: _324  and  _326
REMARK  117  A    between atoms: _326  and  _327
REMARK  118  A    between atoms: _326  and  _329
REMARK  119  A    between atoms: _329  and  _330
REMARK  120  A    between atoms: _334  and  _335
REMARK  121  A    between atoms: _341  and  _342
REMARK  122  A    between atoms: _347  and  _349
REMARK  123  A    between atoms: _349  and  _350
REMARK  124  A    between atoms: _349  and  _352
REMARK  125  A    between atoms: _352  and  _353
REMARK  126  A    between atoms: _356  and  _358
REMARK  127  A    between atoms: _358  and  _359
REMARK  128  A    between atoms: _358  and  _361
REMARK  129  A    between atoms: _361  and  _362
REMARK  130  A    between atoms: _365  and  _367
REMARK  131  A    between atoms: _367  and  _368
REMARK  132  A    between atoms: _367  and  _370
REMARK  133  A    between atoms: _372  and  _374
REMARK  134  A    between atoms: _374  and  _375
REMARK  135  A    between atoms: _374  and  _377
REMARK  136  A    between atoms: _380  and  _382
REMARK  137  A    between atoms: _382  and  _383
REMARK  138  A    between atoms: _382  and  _385
REMARK  139  A    between atoms: _385  and  _386
REMARK  140  A    between atoms: _396  and  _398
REMARK  141  A    between atoms: _398  and  _399
REMARK  142  A    between atoms: _398  and  _401
REMARK  143  A    between atoms: _401  and  _402
REMARK  144  A    between atoms: _407  and  _409
REMARK  145  A    between atoms: _409  and  _410
REMARK  146  A    between atoms: _409  and  _412
REMARK  147  A    between atoms: _412  and  _413
REMARK  148  A    between atoms: _413  and  _414
REMARK  149  A    between atoms: _414  and  _415
REMARK                            x       y       z     vdW  Elec       q    Type
REMARK                         _______ _______ _______ _____ _____    ______ ____
ROOT
ATOM      1  O   HOH     1      -1.122  -4.135  15.750  0.00  0.00    +0.000 OA
ENDROOT
TORSDOF 0
REMARK  Name = ../refined-set-2016/3t5u/3t5u_pocket.pdb
REMARK  149 active torsions:
REMARK  status: ('A' for Active; 'I' for Inactive)
REMARK    1  A    between atoms: _1  and  _3
REMARK    2  A    between atoms: _3  and  _4
REMARK    3  A    between atoms: _3  and  _6
REMARK    4  A    between atoms: _6  and  _7
REMARK    5  A    between atoms: _17  and  _19
REMARK    6  A    between atoms: _19  and  _20
REMARK    7  A    between atoms: _19  and  _22
REMARK    8  A    between atoms: _22  and  _23
REMARK    9  A    between atoms: _28  and  _29
REMARK   10  A    between atoms: _31  and  _33
REMARK   11  A    between atoms: _33  and  _34
REMARK   12  A    between atoms: _33  and  _36
REMARK   13  A    between atoms: _36  and  _37
REMARK   14  A    between atoms: _47  and  _49
REMARK   15  A    between atoms: _49  and  _50
REMARK   16  A    between atoms: _49  and  _52
REMARK   17  A    between atoms: _52  and  _53
REMARK   18  A    between atoms: _56  and  _57
REMARK   19  A    between atoms: _62  and  _64
REMARK   20  A    between atoms: _64  and  _65
REMARK   21  A    between atoms: _64  and  _67
REMARK   22  A    between atoms: _67  and  _68
REMARK   23  A    between atoms: _73  and  _75
REMARK   24  A    between atoms: _75  and  _76
REMARK   25  A    between atoms: _79  and  _81
REMARK   26  A    between atoms: _81  and  _82
REMARK   27  A    between atoms: _81  and  _84
REMARK   28  A    between atoms: _84  and  _85
REMARK   29  A    between atoms: _90  and  _92
REMARK   30  A    between atoms: _92  and  _93
REMARK   31  A    between atoms: _92  and  _95
REMARK   32  A    between atoms: _95  and  _96
REMARK   33  A    between atoms: _99  and  _101
REMARK   34  A    between atoms: _101  and  _102
REMARK   35  A    between atoms: _101  and  _104
REMARK   36  A    between atoms: _104  and  _105
REMARK   37  A    between atoms: _105  and  _106
REMARK   38  A    between atoms: _111  and  _113
REMARK   39  A    between atoms: _113  and  _114
REMARK   40  A    between atoms: _113  and  _116
REMARK   41  A    between atoms: _116  and  _117
REMARK   42  A    between atoms: _123  and  _125
REMARK   43  A    between atoms: _136  and  _139
REMARK   44  A    between atoms: _139  and  _140
REMARK   45  A    between atoms: _148  and  _149
REMARK   46  A    between atoms: _157  and  _159
REMARK   47  A    between atoms: _159  and  _160
REMARK   48  A    between atoms: _159  and  _162
REMARK   49  A    between atoms: _162  and  _163
REMARK   50  A    between atoms: _163  and  _164
REMARK   51  A    between atoms: _167  and  _169
REMARK   52  A    between atoms: _169  and  _170
REMARK   53  A    between atoms: _169  and  _172
REMARK   54  A    between atoms: _172  and  _173
REMARK   55  A    between atoms: _178  and  _180
REMARK   56  A    between atoms: _180  and  _181
REMARK   57  A    between atoms: _180  and  _183
REMARK   58  A    between atoms: _183  and  _184
REMARK   59  A    between atoms: _184  and  _185
REMARK   60  A    between atoms: _188  and  _190
REMARK   61  A    between atoms: _190  and  _191
REMARK   62  A    between atoms: _190  and  _193
REMARK   63  A    between atoms: _193  and  _194
REMARK   64  A    between atoms: _197  and  _199
REMARK   65  A    between atoms: _199  and  _200
REMARK   66  A    between atoms: _199  and  _202
REMARK   67  A    between atoms: _202  and  _203
REMARK   68  A    between atoms: _204  and  ZN_424
REMARK   69  A    between atoms: _208  and  _210
REMARK   70  A    between atoms: _210  and  _211
REMARK   71  A    between atoms: _210  and  _213
REMARK   72  A    between atoms: _213  and  _214
REMARK   73  A    between atoms: _217  and  _219
REMARK   74  A    between atoms: _219  and  _220
REMARK   75  A    between atoms: _219  and  _222
REMARK   76  A    between atoms: _225  and  _227
REMARK   77  A    between atoms: _227  and  _228
REMARK   78  A    between atoms: _227  and  _230
REMARK   79  A    between atoms: _230  and  _231
REMARK   80  A    between atoms: _236  and  _238
REMARK   81  A    between atoms: _238  and  _239
REMARK   82  A    between atoms: _238  and  _241
REMARK   83  A    between atoms: _241  and  _242
REMARK   84  A    between atoms: _248  and  _250
REMARK   85  A    between atoms: _250  and  _251
REMARK   86  A    between atoms: _250  and  _253
REMARK   87  A    between atoms: _256  and  _258
REMARK   88  A    between atoms: _258  and  _259
REMARK   89  A    between atoms: _258  and  _261
REMARK   90  A    between atoms: _261  and  _262
REMARK   91  A    between atoms: _265  and  _267
REMARK   92  A    between atoms: _267  and  _268
REMARK   93  A    between atoms: _271  and  _273
REMARK   94  A    between atoms: _273  and  _274
REMARK   95  A    between atoms: _273  and  _276
REMARK   96  A    between atoms: _279  and  _281
REMARK   97  A    between atoms: _281  and  _282
REMARK   98  A    between atoms: _281  and  _284
REMARK   99  A    between atoms: _284  and  _285
REMARK  100  A    between atoms: _288  and  _290
REMARK  101  A    between atoms: _290  and  _291
REMARK  102  A    between atoms: _293  and  _295
REMARK  103  A    between atoms: _295  and  _296
REMARK  104  A    between atoms: _298  and  _300
REMARK  105  A    between atoms: _300  and  _301
REMARK  106  A    between atoms: _300  and  _303
REMARK  107  A    between atoms: _303  and  _304
REMARK  108  A    between atoms: _306  and  _308
REMARK  109  A    between atoms: _308  and  _309
REMARK  110  A    between atoms: _308  and  _311
REMARK  111  A    between atoms: _311  and  _312
REMARK  112  A    between atoms: _315  and  _317
REMARK  113  A    between atoms: _317  and  _318
REMARK  114  A    between atoms: _317  and  _320
REMARK  115  A    between atoms: _320  and  _321
REMARK  116  A    between atoms: _324  and  _326
REMARK  117  A    between atoms: _326  and  _327
REMARK  118  A    between atoms: _326  and  _329
REMARK  119  A    between atoms: _329  and  _330
REMARK  120  A    between atoms: _334  and  _335
REMARK  121  A    between atoms: _341  and  _342
REMARK  122  A    between atoms: _347  and  _349
REMARK  123  A    between atoms: _349  and  _350
REMARK  124  A    between atoms: _349  and  _352
REMARK  125  A    between atoms: _352  and  _353
REMARK  126  A    between atoms: _356  and  _358
REMARK  127  A    between atoms: _358  and  _359
REMARK  128  A    between atoms: _358  and  _361
REMARK  129  A    between atoms: _361  and  _362
REMARK  130  A    between atoms: _365  and  _367
REMARK  131  A    between atoms: _367  and  _368
REMARK  132  A    between atoms: _367  and  _370
REMARK  133  A    between atoms: _372  and  _374
REMARK  134  A    between atoms: _374  and  _375
REMARK  135  A    between atoms: _374  and  _377
REMARK  136  A    between atoms: _380  and  _382
REMARK  137  A    between atoms: _382  and  _383
REMARK  138  A    between atoms: _382  and  _385
REMARK  139  A    between atoms: _385  and  _386
REMARK  140  A    between atoms: _396  and  _398
REMARK  141  A    between atoms: _398  and  _399
REMARK  142  A    between atoms: _398  and  _401
REMARK  143  A    between atoms: _401  and  _402
REMARK  144  A    between atoms: _407  and  _409
REMARK  145  A    between atoms: _409  and  _410
REMARK  146  A    between atoms: _409  and  _412
REMARK  147  A    between atoms: _412  and  _413
REMARK  148  A    between atoms: _413  and  _414
REMARK  149  A    between atoms: _414  and  _415
REMARK                            x       y       z     vdW  Elec       q    Type
REMARK                         _______ _______ _______ _____ _____    ______ ____
ROOT
ATOM      1  O   HOH     1      -2.346  -3.573  11.377  0.00  0.00    +0.000 OA
ENDROOT
TORSDOF 0
REMARK  Name = ../refined-set-2016/3t5u/3t5u_pocket.pdb
REMARK  149 active torsions:
REMARK  status: ('A' for Active; 'I' for Inactive)
REMARK    1  A    between atoms: _1  and  _3
REMARK    2  A    between atoms: _3  and  _4
REMARK    3  A    between atoms: _3  and  _6
REMARK    4  A    between atoms: _6  and  _7
REMARK    5  A    between atoms: _17  and  _19
REMARK    6  A    between atoms: _19  and  _20
REMARK    7  A    between atoms: _19  and  _22
REMARK    8  A    between atoms: _22  and  _23
REMARK    9  A    between atoms: _28  and  _29
REMARK   10  A    between atoms: _31  and  _33
REMARK   11  A    between atoms: _33  and  _34
REMARK   12  A    between atoms: _33  and  _36
REMARK   13  A    between atoms: _36  and  _37
REMARK   14  A    between atoms: _47  and  _49
REMARK   15  A    between atoms: _49  and  _50
REMARK   16  A    between atoms: _49  and  _52
REMARK   17  A    between atoms: _52  and  _53
REMARK   18  A    between atoms: _56  and  _57
REMARK   19  A    between atoms: _62  and  _64
REMARK   20  A    between atoms: _64  and  _65
REMARK   21  A    between atoms: _64  and  _67
REMARK   22  A    between atoms: _67  and  _68
REMARK   23  A    between atoms: _73  and  _75
REMARK   24  A    between atoms: _75  and  _76
REMARK   25  A    between atoms: _79  and  _81
REMARK   26  A    between atoms: _81  and  _82
REMARK   27  A    between atoms: _81  and  _84
REMARK   28  A    between atoms: _84  and  _85
REMARK   29  A    between atoms: _90  and  _92
REMARK   30  A    between atoms: _92  and  _93
REMARK   31  A    between atoms: _92  and  _95
REMARK   32  A    between atoms: _95  and  _96
REMARK   33  A    between atoms: _99  and  _101
REMARK   34  A    between atoms: _101  and  _102
REMARK   35  A    between atoms: _101  and  _104
REMARK   36  A    between atoms: _104  and  _105
REMARK   37  A    between atoms: _105  and  _106
REMARK   38  A    between atoms: _111  and  _113
REMARK   39  A    between atoms: _113  and  _114
REMARK   40  A    between atoms: _113  and  _116
REMARK   41  A    between atoms: _116  and  _117
REMARK   42  A    between atoms: _123  and  _125
REMARK   43  A    between atoms: _136  and  _139
REMARK   44  A    between atoms: _139  and  _140
REMARK   45  A    between atoms: _148  and  _149
REMARK   46  A    between atoms: _157  and  _159
REMARK   47  A    between atoms: _159  and  _160
REMARK   48  A    between atoms: _159  and  _162
REMARK   49  A    between atoms: _162  and  _163
REMARK   50  A    between atoms: _163  and  _164
REMARK   51  A    between atoms: _167  and  _169
REMARK   52  A    between atoms: _169  and  _170
REMARK   53  A    between atoms: _169  and  _172
REMARK   54  A    between atoms: _172  and  _173
REMARK   55  A    between atoms: _178  and  _180
REMARK   56  A    between atoms: _180  and  _181
REMARK   57  A    between atoms: _180  and  _183
REMARK   58  A    between atoms: _183  and  _184
REMARK   59  A    between atoms: _184  and  _185
REMARK   60  A    between atoms: _188  and  _190
REMARK   61  A    between atoms: _190  and  _191
REMARK   62  A    between atoms: _190  and  _193
REMARK   63  A    between atoms: _193  and  _194
REMARK   64  A    between atoms: _197  and  _199
REMARK   65  A    between atoms: _199  and  _200
REMARK   66  A    between atoms: _199  and  _202
REMARK   67  A    between atoms: _202  and  _203
REMARK   68  A    between atoms: _204  and  ZN_424
REMARK   69  A    between atoms: _208  and  _210
REMARK   70  A    between atoms: _210  and  _211
REMARK   71  A    between atoms: _210  and  _213
REMARK   72  A    between atoms: _213  and  _214
REMARK   73  A    between atoms: _217  and  _219
REMARK   74  A    between atoms: _219  and  _220
REMARK   75  A    between atoms: _219  and  _222
REMARK   76  A    between atoms: _225  and  _227
REMARK   77  A    between atoms: _227  and  _228
REMARK   78  A    between atoms: _227  and  _230
REMARK   79  A    between atoms: _230  and  _231
REMARK   80  A    between atoms: _236  and  _238
REMARK   81  A    between atoms: _238  and  _239
REMARK   82  A    between atoms: _238  and  _241
REMARK   83  A    between atoms: _241  and  _242
REMARK   84  A    between atoms: _248  and  _250
REMARK   85  A    between atoms: _250  and  _251
REMARK   86  A    between atoms: _250  and  _253
REMARK   87  A    between atoms: _256  and  _258
REMARK   88  A    between atoms: _258  and  _259
REMARK   89  A    between atoms: _258  and  _261
REMARK   90  A    between atoms: _261  and  _262
REMARK   91  A    between atoms: _265  and  _267
REMARK   92  A    between atoms: _267  and  _268
REMARK   93  A    between atoms: _271  and  _273
REMARK   94  A    between atoms: _273  and  _274
REMARK   95  A    between atoms: _273  and  _276
REMARK   96  A    between atoms: _279  and  _281
REMARK   97  A    between atoms: _281  and  _282
REMARK   98  A    between atoms: _281  and  _284
REMARK   99  A    between atoms: _284  and  _285
REMARK  100  A    between atoms: _288  and  _290
REMARK  101  A    between atoms: _290  and  _291
REMARK  102  A    between atoms: _293  and  _295
REMARK  103  A    between atoms: _295  and  _296
REMARK  104  A    between atoms: _298  and  _300
REMARK  105  A    between atoms: _300  and  _301
REMARK  106  A    between atoms: _300  and  _303
REMARK  107  A    between atoms: _303  and  _304
REMARK  108  A    between atoms: _306  and  _308
REMARK  109  A    between atoms: _308  and  _309
REMARK  110  A    between atoms: _308  and  _311
REMARK  111  A    between atoms: _311  and  _312
REMARK  112  A    between atoms: _315  and  _317
REMARK  113  A    between atoms: _317  and  _318
REMARK  114  A    between atoms: _317  and  _320
REMARK  115  A    between atoms: _320  and  _321
REMARK  116  A    between atoms: _324  and  _326
REMARK  117  A    between atoms: _326  and  _327
REMARK  118  A    between atoms: _326  and  _329
REMARK  119  A    between atoms: _329  and  _330
REMARK  120  A    between atoms: _334  and  _335
REMARK  121  A    between atoms: _341  and  _342
REMARK  122  A    between atoms: _347  and  _349
REMARK  123  A    between atoms: _349  and  _350
REMARK  124  A    between atoms: _349  and  _352
REMARK  125  A    between atoms: _352  and  _353
REMARK  126  A    between atoms: _356  and  _358
REMARK  127  A    between atoms: _358  and  _359
REMARK  128  A    between atoms: _358  and  _361
REMARK  129  A    between atoms: _361  and  _362
REMARK  130  A    between atoms: _365  and  _367
REMARK  131  A    between atoms: _367  and  _368
REMARK  132  A    between atoms: _367  and  _370
REMARK  133  A    between atoms: _372  and  _374
REMARK  134  A    between atoms: _374  and  _375
REMARK  135  A    between atoms: _374  and  _377
REMARK  136  A    between atoms: _380  and  _382
REMARK  137  A    between atoms: _382  and  _383
REMARK  138  A    between atoms: _382  and  _385
REMARK  139  A    between atoms: _385  and  _386
REMARK  140  A    between atoms: _396  and  _398
REMARK  141  A    between atoms: _398  and  _399
REMARK  142  A    between atoms: _398  and  _401
REMARK  143  A    between atoms: _401  and  _402
REMARK  144  A    between atoms: _407  and  _409
REMARK  145  A    between atoms: _409  and  _410
REMARK  146  A    between atoms: _409  and  _412
REMARK  147  A    between atoms: _412  and  _413
REMARK  148  A    between atoms: _413  and  _414
REMARK  149  A    between atoms: _414  and  _415
REMARK                            x       y       z     vdW  Elec       q    Type
REMARK                         _______ _______ _______ _____ _____    ______ ____
ROOT
ATOM      1  O   HOH     1      -1.137   3.574  13.733  0.00  0.00    +0.000 OA
ENDROOT
TORSDOF 0
REMARK  Name = ../refined-set-2016/3t5u/3t5u_pocket.pdb
REMARK  149 active torsions:
REMARK  status: ('A' for Active; 'I' for Inactive)
REMARK    1  A    between atoms: _1  and  _3
REMARK    2  A    between atoms: _3  and  _4
REMARK    3  A    between atoms: _3  and  _6
REMARK    4  A    between atoms: _6  and  _7
REMARK    5  A    between atoms: _17  and  _19
REMARK    6  A    between atoms: _19  and  _20
REMARK    7  A    between atoms: _19  and  _22
REMARK    8  A    between atoms: _22  and  _23
REMARK    9  A    between atoms: _28  and  _29
REMARK   10  A    between atoms: _31  and  _33
REMARK   11  A    between atoms: _33  and  _34
REMARK   12  A    between atoms: _33  and  _36
REMARK   13  A    between atoms: _36  and  _37
REMARK   14  A    between atoms: _47  and  _49
REMARK   15  A    between atoms: _49  and  _50
REMARK   16  A    between atoms: _49  and  _52
REMARK   17  A    between atoms: _52  and  _53
REMARK   18  A    between atoms: _56  and  _57
REMARK   19  A    between atoms: _62  and  _64
REMARK   20  A    between atoms: _64  and  _65
REMARK   21  A    between atoms: _64  and  _67
REMARK   22  A    between atoms: _67  and  _68
REMARK   23  A    between atoms: _73  and  _75
REMARK   24  A    between atoms: _75  and  _76
REMARK   25  A    between atoms: _79  and  _81
REMARK   26  A    between atoms: _81  and  _82
REMARK   27  A    between atoms: _81  and  _84
REMARK   28  A    between atoms: _84  and  _85
REMARK   29  A    between atoms: _90  and  _92
REMARK   30  A    between atoms: _92  and  _93
REMARK   31  A    between atoms: _92  and  _95
REMARK   32  A    between atoms: _95  and  _96
REMARK   33  A    between atoms: _99  and  _101
REMARK   34  A    between atoms: _101  and  _102
REMARK   35  A    between atoms: _101  and  _104
REMARK   36  A    between atoms: _104  and  _105
REMARK   37  A    between atoms: _105  and  _106
REMARK   38  A    between atoms: _111  and  _113
REMARK   39  A    between atoms: _113  and  _114
REMARK   40  A    between atoms: _113  and  _116
REMARK   41  A    between atoms: _116  and  _117
REMARK   42  A    between atoms: _123  and  _125
REMARK   43  A    between atoms: _136  and  _139
REMARK   44  A    between atoms: _139  and  _140
REMARK   45  A    between atoms: _148  and  _149
REMARK   46  A    between atoms: _157  and  _159
REMARK   47  A    between atoms: _159  and  _160
REMARK   48  A    between atoms: _159  and  _162
REMARK   49  A    between atoms: _162  and  _163
REMARK   50  A    between atoms: _163  and  _164
REMARK   51  A    between atoms: _167  and  _169
REMARK   52  A    between atoms: _169  and  _170
REMARK   53  A    between atoms: _169  and  _172
REMARK   54  A    between atoms: _172  and  _173
REMARK   55  A    between atoms: _178  and  _180
REMARK   56  A    between atoms: _180  and  _181
REMARK   57  A    between atoms: _180  and  _183
REMARK   58  A    between atoms: _183  and  _184
REMARK   59  A    between atoms: _184  and  _185
REMARK   60  A    between atoms: _188  and  _190
REMARK   61  A    between atoms: _190  and  _191
REMARK   62  A    between atoms: _190  and  _193
REMARK   63  A    between atoms: _193  and  _194
REMARK   64  A    between atoms: _197  and  _199
REMARK   65  A    between atoms: _199  and  _200
REMARK   66  A    between atoms: _199  and  _202
REMARK   67  A    between atoms: _202  and  _203
REMARK   68  A    between atoms: _204  and  ZN_424
REMARK   69  A    between atoms: _208  and  _210
REMARK   70  A    between atoms: _210  and  _211
REMARK   71  A    between atoms: _210  and  _213
REMARK   72  A    between atoms: _213  and  _214
REMARK   73  A    between atoms: _217  and  _219
REMARK   74  A    between atoms: _219  and  _220
REMARK   75  A    between atoms: _219  and  _222
REMARK   76  A    between atoms: _225  and  _227
REMARK   77  A    between atoms: _227  and  _228
REMARK   78  A    between atoms: _227  and  _230
REMARK   79  A    between atoms: _230  and  _231
REMARK   80  A    between atoms: _236  and  _238
REMARK   81  A    between atoms: _238  and  _239
REMARK   82  A    between atoms: _238  and  _241
REMARK   83  A    between atoms: _241  and  _242
REMARK   84  A    between atoms: _248  and  _250
REMARK   85  A    between atoms: _250  and  _251
REMARK   86  A    between atoms: _250  and  _253
REMARK   87  A    between atoms: _256  and  _258
REMARK   88  A    between atoms: _258  and  _259
REMARK   89  A    between atoms: _258  and  _261
REMARK   90  A    between atoms: _261  and  _262
REMARK   91  A    between atoms: _265  and  _267
REMARK   92  A    between atoms: _267  and  _268
REMARK   93  A    between atoms: _271  and  _273
REMARK   94  A    between atoms: _273  and  _274
REMARK   95  A    between atoms: _273  and  _276
REMARK   96  A    between atoms: _279  and  _281
REMARK   97  A    between atoms: _281  and  _282
REMARK   98  A    between atoms: _281  and  _284
REMARK   99  A    between atoms: _284  and  _285
REMARK  100  A    between atoms: _288  and  _290
REMARK  101  A    between atoms: _290  and  _291
REMARK  102  A    between atoms: _293  and  _295
REMARK  103  A    between atoms: _295  and  _296
REMARK  104  A    between atoms: _298  and  _300
REMARK  105  A    between atoms: _300  and  _301
REMARK  106  A    between atoms: _300  and  _303
REMARK  107  A    between atoms: _303  and  _304
REMARK  108  A    between atoms: _306  and  _308
REMARK  109  A    between atoms: _308  and  _309
REMARK  110  A    between atoms: _308  and  _311
REMARK  111  A    between atoms: _311  and  _312
REMARK  112  A    between atoms: _315  and  _317
REMARK  113  A    between atoms: _317  and  _318
REMARK  114  A    between atoms: _317  and  _320
REMARK  115  A    between atoms: _320  and  _321
REMARK  116  A    between atoms: _324  and  _326
REMARK  117  A    between atoms: _326  and  _327
REMARK  118  A    between atoms: _326  and  _329
REMARK  119  A    between atoms: _329  and  _330
REMARK  120  A    between atoms: _334  and  _335
REMARK  121  A    between atoms: _341  and  _342
REMARK  122  A    between atoms: _347  and  _349
REMARK  123  A    between atoms: _349  and  _350
REMARK  124  A    between atoms: _349  and  _352
REMARK  125  A    between atoms: _352  and  _353
REMARK  126  A    between atoms: _356  and  _358
REMARK  127  A    between atoms: _358  and  _359
REMARK  128  A    between atoms: _358  and  _361
REMARK  129  A    between atoms: _361  and  _362
REMARK  130  A    between atoms: _365  and  _367
REMARK  131  A    between atoms: _367  and  _368
REMARK  132  A    between atoms: _367  and  _370
REMARK  133  A    between atoms: _372  and  _374
REMARK  134  A    between atoms: _374  and  _375
REMARK  135  A    between atoms: _374  and  _377
REMARK  136  A    between atoms: _380  and  _382
REMARK  137  A    between atoms: _382  and  _383
REMARK  138  A    between atoms: _382  and  _385
REMARK  139  A    between atoms: _385  and  _386
REMARK  140  A    between atoms: _396  and  _398
REMARK  141  A    between atoms: _398  and  _399
REMARK  142  A    between atoms: _398  and  _401
REMARK  143  A    between atoms: _401  and  _402
REMARK  144  A    between atoms: _407  and  _409
REMARK  145  A    between atoms: _409  and  _410
REMARK  146  A    between atoms: _409  and  _412
REMARK  147  A    between atoms: _412  and  _413
REMARK  148  A    between atoms: _413  and  _414
REMARK  149  A    between atoms: _414  and  _415
REMARK                            x       y       z     vdW  Elec       q    Type
REMARK                         _______ _______ _______ _____ _____    ______ ____
ROOT
ATOM      1  O   HOH     1      -3.475   5.956  10.643  0.00  0.00    +0.000 OA
ENDROOT
TORSDOF 0
REMARK  Name = ../refined-set-2016/3t5u/3t5u_pocket.pdb
REMARK  149 active torsions:
REMARK  status: ('A' for Active; 'I' for Inactive)
REMARK    1  A    between atoms: _1  and  _3
REMARK    2  A    between atoms: _3  and  _4
REMARK    3  A    between atoms: _3  and  _6
REMARK    4  A    between atoms: _6  and  _7
REMARK    5  A    between atoms: _17  and  _19
REMARK    6  A    between atoms: _19  and  _20
REMARK    7  A    between atoms: _19  and  _22
REMARK    8  A    between atoms: _22  and  _23
REMARK    9  A    between atoms: _28  and  _29
REMARK   10  A    between atoms: _31  and  _33
REMARK   11  A    between atoms: _33  and  _34
REMARK   12  A    between atoms: _33  and  _36
REMARK   13  A    between atoms: _36  and  _37
REMARK   14  A    between atoms: _47  and  _49
REMARK   15  A    between atoms: _49  and  _50
REMARK   16  A    between atoms: _49  and  _52
REMARK   17  A    between atoms: _52  and  _53
REMARK   18  A    between atoms: _56  and  _57
REMARK   19  A    between atoms: _62  and  _64
REMARK   20  A    between atoms: _64  and  _65
REMARK   21  A    between atoms: _64  and  _67
REMARK   22  A    between atoms: _67  and  _68
REMARK   23  A    between atoms: _73  and  _75
REMARK   24  A    between atoms: _75  and  _76
REMARK   25  A    between atoms: _79  and  _81
REMARK   26  A    between atoms: _81  and  _82
REMARK   27  A    between atoms: _81  and  _84
REMARK   28  A    between atoms: _84  and  _85
REMARK   29  A    between atoms: _90  and  _92
REMARK   30  A    between atoms: _92  and  _93
REMARK   31  A    between atoms: _92  and  _95
REMARK   32  A    between atoms: _95  and  _96
REMARK   33  A    between atoms: _99  and  _101
REMARK   34  A    between atoms: _101  and  _102
REMARK   35  A    between atoms: _101  and  _104
REMARK   36  A    between atoms: _104  and  _105
REMARK   37  A    between atoms: _105  and  _106
REMARK   38  A    between atoms: _111  and  _113
REMARK   39  A    between atoms: _113  and  _114
REMARK   40  A    between atoms: _113  and  _116
REMARK   41  A    between atoms: _116  and  _117
REMARK   42  A    between atoms: _123  and  _125
REMARK   43  A    between atoms: _136  and  _139
REMARK   44  A    between atoms: _139  and  _140
REMARK   45  A    between atoms: _148  and  _149
REMARK   46  A    between atoms: _157  and  _159
REMARK   47  A    between atoms: _159  and  _160
REMARK   48  A    between atoms: _159  and  _162
REMARK   49  A    between atoms: _162  and  _163
REMARK   50  A    between atoms: _163  and  _164
REMARK   51  A    between atoms: _167  and  _169
REMARK   52  A    between atoms: _169  and  _170
REMARK   53  A    between atoms: _169  and  _172
REMARK   54  A    between atoms: _172  and  _173
REMARK   55  A    between atoms: _178  and  _180
REMARK   56  A    between atoms: _180  and  _181
REMARK   57  A    between atoms: _180  and  _183
REMARK   58  A    between atoms: _183  and  _184
REMARK   59  A    between atoms: _184  and  _185
REMARK   60  A    between atoms: _188  and  _190
REMARK   61  A    between atoms: _190  and  _191
REMARK   62  A    between atoms: _190  and  _193
REMARK   63  A    between atoms: _193  and  _194
REMARK   64  A    between atoms: _197  and  _199
REMARK   65  A    between atoms: _199  and  _200
REMARK   66  A    between atoms: _199  and  _202
REMARK   67  A    between atoms: _202  and  _203
REMARK   68  A    between atoms: _204  and  ZN_424
REMARK   69  A    between atoms: _208  and  _210
REMARK   70  A    between atoms: _210  and  _211
REMARK   71  A    between atoms: _210  and  _213
REMARK   72  A    between atoms: _213  and  _214
REMARK   73  A    between atoms: _217  and  _219
REMARK   74  A    between atoms: _219  and  _220
REMARK   75  A    between atoms: _219  and  _222
REMARK   76  A    between atoms: _225  and  _227
REMARK   77  A    between atoms: _227  and  _228
REMARK   78  A    between atoms: _227  and  _230
REMARK   79  A    between atoms: _230  and  _231
REMARK   80  A    between atoms: _236  and  _238
REMARK   81  A    between atoms: _238  and  _239
REMARK   82  A    between atoms: _238  and  _241
REMARK   83  A    between atoms: _241  and  _242
REMARK   84  A    between atoms: _248  and  _250
REMARK   85  A    between atoms: _250  and  _251
REMARK   86  A    between atoms: _250  and  _253
REMARK   87  A    between atoms: _256  and  _258
REMARK   88  A    between atoms: _258  and  _259
REMARK   89  A    between atoms: _258  and  _261
REMARK   90  A    between atoms: _261  and  _262
REMARK   91  A    between atoms: _265  and  _267
REMARK   92  A    between atoms: _267  and  _268
REMARK   93  A    between atoms: _271  and  _273
REMARK   94  A    between atoms: _273  and  _274
REMARK   95  A    between atoms: _273  and  _276
REMARK   96  A    between atoms: _279  and  _281
REMARK   97  A    between atoms: _281  and  _282
REMARK   98  A    between atoms: _281  and  _284
REMARK   99  A    between atoms: _284  and  _285
REMARK  100  A    between atoms: _288  and  _290
REMARK  101  A    between atoms: _290  and  _291
REMARK  102  A    between atoms: _293  and  _295
REMARK  103  A    between atoms: _295  and  _296
REMARK  104  A    between atoms: _298  and  _300
REMARK  105  A    between atoms: _300  and  _301
REMARK  106  A    between atoms: _300  and  _303
REMARK  107  A    between atoms: _303  and  _304
REMARK  108  A    between atoms: _306  and  _308
REMARK  109  A    between atoms: _308  and  _309
REMARK  110  A    between atoms: _308  and  _311
REMARK  111  A    between atoms: _311  and  _312
REMARK  112  A    between atoms: _315  and  _317
REMARK  113  A    between atoms: _317  and  _318
REMARK  114  A    between atoms: _317  and  _320
REMARK  115  A    between atoms: _320  and  _321
REMARK  116  A    between atoms: _324  and  _326
REMARK  117  A    between atoms: _326  and  _327
REMARK  118  A    between atoms: _326  and  _329
REMARK  119  A    between atoms: _329  and  _330
REMARK  120  A    between atoms: _334  and  _335
REMARK  121  A    between atoms: _341  and  _342
REMARK  122  A    between atoms: _347  and  _349
REMARK  123  A    between atoms: _349  and  _350
REMARK  124  A    between atoms: _349  and  _352
REMARK  125  A    between atoms: _352  and  _353
REMARK  126  A    between atoms: _356  and  _358
REMARK  127  A    between atoms: _358  and  _359
REMARK  128  A    between atoms: _358  and  _361
REMARK  129  A    between atoms: _361  and  _362
REMARK  130  A    between atoms: _365  and  _367
REMARK  131  A    between atoms: _367  and  _368
REMARK  132  A    between atoms: _367  and  _370
REMARK  133  A    between atoms: _372  and  _374
REMARK  134  A    between atoms: _374  and  _375
REMARK  135  A    between atoms: _374  and  _377
REMARK  136  A    between atoms: _380  and  _382
REMARK  137  A    between atoms: _382  and  _383
REMARK  138  A    between atoms: _382  and  _385
REMARK  139  A    between atoms: _385  and  _386
REMARK  140  A    between atoms: _396  and  _398
REMARK  141  A    between atoms: _398  and  _399
REMARK  142  A    between atoms: _398  and  _401
REMARK  143  A    between atoms: _401  and  _402
REMARK  144  A    between atoms: _407  and  _409
REMARK  145  A    between atoms: _409  and  _410
REMARK  146  A    between atoms: _409  and  _412
REMARK  147  A    between atoms: _412  and  _413
REMARK  148  A    between atoms: _413  and  _414
REMARK  149  A    between atoms: _414  and  _415
REMARK                            x       y       z     vdW  Elec       q    Type
REMARK                         _______ _______ _______ _____ _____    ______ ____
ROOT
ATOM      1  O   HOH     1      -3.218   4.767   7.560  0.00  0.00    +0.000 OA
ENDROOT
TORSDOF 0
REMARK  Name = ../refined-set-2016/3t5u/3t5u_pocket.pdb
REMARK  149 active torsions:
REMARK  status: ('A' for Active; 'I' for Inactive)
REMARK    1  A    between atoms: _1  and  _3
REMARK    2  A    between atoms: _3  and  _4
REMARK    3  A    between atoms: _3  and  _6
REMARK    4  A    between atoms: _6  and  _7
REMARK    5  A    between atoms: _17  and  _19
REMARK    6  A    between atoms: _19  and  _20
REMARK    7  A    between atoms: _19  and  _22
REMARK    8  A    between atoms: _22  and  _23
REMARK    9  A    between atoms: _28  and  _29
REMARK   10  A    between atoms: _31  and  _33
REMARK   11  A    between atoms: _33  and  _34
REMARK   12  A    between atoms: _33  and  _36
REMARK   13  A    between atoms: _36  and  _37
REMARK   14  A    between atoms: _47  and  _49
REMARK   15  A    between atoms: _49  and  _50
REMARK   16  A    between atoms: _49  and  _52
REMARK   17  A    between atoms: _52  and  _53
REMARK   18  A    between atoms: _56  and  _57
REMARK   19  A    between atoms: _62  and  _64
REMARK   20  A    between atoms: _64  and  _65
REMARK   21  A    between atoms: _64  and  _67
REMARK   22  A    between atoms: _67  and  _68
REMARK   23  A    between atoms: _73  and  _75
REMARK   24  A    between atoms: _75  and  _76
REMARK   25  A    between atoms: _79  and  _81
REMARK   26  A    between atoms: _81  and  _82
REMARK   27  A    between atoms: _81  and  _84
REMARK   28  A    between atoms: _84  and  _85
REMARK   29  A    between atoms: _90  and  _92
REMARK   30  A    between atoms: _92  and  _93
REMARK   31  A    between atoms: _92  and  _95
REMARK   32  A    between atoms: _95  and  _96
REMARK   33  A    between atoms: _99  and  _101
REMARK   34  A    between atoms: _101  and  _102
REMARK   35  A    between atoms: _101  and  _104
REMARK   36  A    between atoms: _104  and  _105
REMARK   37  A    between atoms: _105  and  _106
REMARK   38  A    between atoms: _111  and  _113
REMARK   39  A    between atoms: _113  and  _114
REMARK   40  A    between atoms: _113  and  _116
REMARK   41  A    between atoms: _116  and  _117
REMARK   42  A    between atoms: _123  and  _125
REMARK   43  A    between atoms: _136  and  _139
REMARK   44  A    between atoms: _139  and  _140
REMARK   45  A    between atoms: _148  and  _149
REMARK   46  A    between atoms: _157  and  _159
REMARK   47  A    between atoms: _159  and  _160
REMARK   48  A    between atoms: _159  and  _162
REMARK   49  A    between atoms: _162  and  _163
REMARK   50  A    between atoms: _163  and  _164
REMARK   51  A    between atoms: _167  and  _169
REMARK   52  A    between atoms: _169  and  _170
REMARK   53  A    between atoms: _169  and  _172
REMARK   54  A    between atoms: _172  and  _173
REMARK   55  A    between atoms: _178  and  _180
REMARK   56  A    between atoms: _180  and  _181
REMARK   57  A    between atoms: _180  and  _183
REMARK   58  A    between atoms: _183  and  _184
REMARK   59  A    between atoms: _184  and  _185
REMARK   60  A    between atoms: _188  and  _190
REMARK   61  A    between atoms: _190  and  _191
REMARK   62  A    between atoms: _190  and  _193
REMARK   63  A    between atoms: _193  and  _194
REMARK   64  A    between atoms: _197  and  _199
REMARK   65  A    between atoms: _199  and  _200
REMARK   66  A    between atoms: _199  and  _202
REMARK   67  A    between atoms: _202  and  _203
REMARK   68  A    between atoms: _204  and  ZN_424
REMARK   69  A    between atoms: _208  and  _210
REMARK   70  A    between atoms: _210  and  _211
REMARK   71  A    between atoms: _210  and  _213
REMARK   72  A    between atoms: _213  and  _214
REMARK   73  A    between atoms: _217  and  _219
REMARK   74  A    between atoms: _219  and  _220
REMARK   75  A    between atoms: _219  and  _222
REMARK   76  A    between atoms: _225  and  _227
REMARK   77  A    between atoms: _227  and  _228
REMARK   78  A    between atoms: _227  and  _230
REMARK   79  A    between atoms: _230  and  _231
REMARK   80  A    between atoms: _236  and  _238
REMARK   81  A    between atoms: _238  and  _239
REMARK   82  A    between atoms: _238  and  _241
REMARK   83  A    between atoms: _241  and  _242
REMARK   84  A    between atoms: _248  and  _250
REMARK   85  A    between atoms: _250  and  _251
REMARK   86  A    between atoms: _250  and  _253
REMARK   87  A    between atoms: _256  and  _258
REMARK   88  A    between atoms: _258  and  _259
REMARK   89  A    between atoms: _258  and  _261
REMARK   90  A    between atoms: _261  and  _262
REMARK   91  A    between atoms: _265  and  _267
REMARK   92  A    between atoms: _267  and  _268
REMARK   93  A    between atoms: _271  and  _273
REMARK   94  A    between atoms: _273  and  _274
REMARK   95  A    between atoms: _273  and  _276
REMARK   96  A    between atoms: _279  and  _281
REMARK   97  A    between atoms: _281  and  _282
REMARK   98  A    between atoms: _281  and  _284
REMARK   99  A    between atoms: _284  and  _285
REMARK  100  A    between atoms: _288  and  _290
REMARK  101  A    between atoms: _290  and  _291
REMARK  102  A    between atoms: _293  and  _295
REMARK  103  A    between atoms: _295  and  _296
REMARK  104  A    between atoms: _298  and  _300
REMARK  105  A    between atoms: _300  and  _301
REMARK  106  A    between atoms: _300  and  _303
REMARK  107  A    between atoms: _303  and  _304
REMARK  108  A    between atoms: _306  and  _308
REMARK  109  A    between atoms: _308  and  _309
REMARK  110  A    between atoms: _308  and  _311
REMARK  111  A    between atoms: _311  and  _312
REMARK  112  A    between atoms: _315  and  _317
REMARK  113  A    between atoms: _317  and  _318
REMARK  114  A    between atoms: _317  and  _320
REMARK  115  A    between atoms: _320  and  _321
REMARK  116  A    between atoms: _324  and  _326
REMARK  117  A    between atoms: _326  and  _327
REMARK  118  A    between atoms: _326  and  _329
REMARK  119  A    between atoms: _329  and  _330
REMARK  120  A    between atoms: _334  and  _335
REMARK  121  A    between atoms: _341  and  _342
REMARK  122  A    between atoms: _347  and  _349
REMARK  123  A    between atoms: _349  and  _350
REMARK  124  A    between atoms: _349  and  _352
REMARK  125  A    between atoms: _352  and  _353
REMARK  126  A    between atoms: _356  and  _358
REMARK  127  A    between atoms: _358  and  _359
REMARK  128  A    between atoms: _358  and  _361
REMARK  129  A    between atoms: _361  and  _362
REMARK  130  A    between atoms: _365  and  _367
REMARK  131  A    between atoms: _367  and  _368
REMARK  132  A    between atoms: _367  and  _370
REMARK  133  A    between atoms: _372  and  _374
REMARK  134  A    between atoms: _374  and  _375
REMARK  135  A    between atoms: _374  and  _377
REMARK  136  A    between atoms: _380  and  _382
REMARK  137  A    between atoms: _382  and  _383
REMARK  138  A    between atoms: _382  and  _385
REMARK  139  A    between atoms: _385  and  _386
REMARK  140  A    between atoms: _396  and  _398
REMARK  141  A    between atoms: _398  and  _399
REMARK  142  A    between atoms: _398  and  _401
REMARK  143  A    between atoms: _401  and  _402
REMARK  144  A    between atoms: _407  and  _409
REMARK  145  A    between atoms: _409  and  _410
REMARK  146  A    between atoms: _409  and  _412
REMARK  147  A    between atoms: _412  and  _413
REMARK  148  A    between atoms: _413  and  _414
REMARK  149  A    between atoms: _414  and  _415
REMARK                            x       y       z     vdW  Elec       q    Type
REMARK                         _______ _______ _______ _____ _____    ______ ____
ROOT
ATOM      1  O   HOH     1      -0.529   3.991   8.422  0.00  0.00    +0.000 OA
ENDROOT
TORSDOF 0
REMARK  Name = ../refined-set-2016/3t5u/3t5u_pocket.pdb
REMARK  149 active torsions:
REMARK  status: ('A' for Active; 'I' for Inactive)
REMARK    1  A    between atoms: _1  and  _3
REMARK    2  A    between atoms: _3  and  _4
REMARK    3  A    between atoms: _3  and  _6
REMARK    4  A    between atoms: _6  and  _7
REMARK    5  A    between atoms: _17  and  _19
REMARK    6  A    between atoms: _19  and  _20
REMARK    7  A    between atoms: _19  and  _22
REMARK    8  A    between atoms: _22  and  _23
REMARK    9  A    between atoms: _28  and  _29
REMARK   10  A    between atoms: _31  and  _33
REMARK   11  A    between atoms: _33  and  _34
REMARK   12  A    between atoms: _33  and  _36
REMARK   13  A    between atoms: _36  and  _37
REMARK   14  A    between atoms: _47  and  _49
REMARK   15  A    between atoms: _49  and  _50
REMARK   16  A    between atoms: _49  and  _52
REMARK   17  A    between atoms: _52  and  _53
REMARK   18  A    between atoms: _56  and  _57
REMARK   19  A    between atoms: _62  and  _64
REMARK   20  A    between atoms: _64  and  _65
REMARK   21  A    between atoms: _64  and  _67
REMARK   22  A    between atoms: _67  and  _68
REMARK   23  A    between atoms: _73  and  _75
REMARK   24  A    between atoms: _75  and  _76
REMARK   25  A    between atoms: _79  and  _81
REMARK   26  A    between atoms: _81  and  _82
REMARK   27  A    between atoms: _81  and  _84
REMARK   28  A    between atoms: _84  and  _85
REMARK   29  A    between atoms: _90  and  _92
REMARK   30  A    between atoms: _92  and  _93
REMARK   31  A    between atoms: _92  and  _95
REMARK   32  A    between atoms: _95  and  _96
REMARK   33  A    between atoms: _99  and  _101
REMARK   34  A    between atoms: _101  and  _102
REMARK   35  A    between atoms: _101  and  _104
REMARK   36  A    between atoms: _104  and  _105
REMARK   37  A    between atoms: _105  and  _106
REMARK   38  A    between atoms: _111  and  _113
REMARK   39  A    between atoms: _113  and  _114
REMARK   40  A    between atoms: _113  and  _116
REMARK   41  A    between atoms: _116  and  _117
REMARK   42  A    between atoms: _123  and  _125
REMARK   43  A    between atoms: _136  and  _139
REMARK   44  A    between atoms: _139  and  _140
REMARK   45  A    between atoms: _148  and  _149
REMARK   46  A    between atoms: _157  and  _159
REMARK   47  A    between atoms: _159  and  _160
REMARK   48  A    between atoms: _159  and  _162
REMARK   49  A    between atoms: _162  and  _163
REMARK   50  A    between atoms: _163  and  _164
REMARK   51  A    between atoms: _167  and  _169
REMARK   52  A    between atoms: _169  and  _170
REMARK   53  A    between atoms: _169  and  _172
REMARK   54  A    between atoms: _172  and  _173
REMARK   55  A    between atoms: _178  and  _180
REMARK   56  A    between atoms: _180  and  _181
REMARK   57  A    between atoms: _180  and  _183
REMARK   58  A    between atoms: _183  and  _184
REMARK   59  A    between atoms: _184  and  _185
REMARK   60  A    between atoms: _188  and  _190
REMARK   61  A    between atoms: _190  and  _191
REMARK   62  A    between atoms: _190  and  _193
REMARK   63  A    between atoms: _193  and  _194
REMARK   64  A    between atoms: _197  and  _199
REMARK   65  A    between atoms: _199  and  _200
REMARK   66  A    between atoms: _199  and  _202
REMARK   67  A    between atoms: _202  and  _203
REMARK   68  A    between atoms: _204  and  ZN_424
REMARK   69  A    between atoms: _208  and  _210
REMARK   70  A    between atoms: _210  and  _211
REMARK   71  A    between atoms: _210  and  _213
REMARK   72  A    between atoms: _213  and  _214
REMARK   73  A    between atoms: _217  and  _219
REMARK   74  A    between atoms: _219  and  _220
REMARK   75  A    between atoms: _219  and  _222
REMARK   76  A    between atoms: _225  and  _227
REMARK   77  A    between atoms: _227  and  _228
REMARK   78  A    between atoms: _227  and  _230
REMARK   79  A    between atoms: _230  and  _231
REMARK   80  A    between atoms: _236  and  _238
REMARK   81  A    between atoms: _238  and  _239
REMARK   82  A    between atoms: _238  and  _241
REMARK   83  A    between atoms: _241  and  _242
REMARK   84  A    between atoms: _248  and  _250
REMARK   85  A    between atoms: _250  and  _251
REMARK   86  A    between atoms: _250  and  _253
REMARK   87  A    between atoms: _256  and  _258
REMARK   88  A    between atoms: _258  and  _259
REMARK   89  A    between atoms: _258  and  _261
REMARK   90  A    between atoms: _261  and  _262
REMARK   91  A    between atoms: _265  and  _267
REMARK   92  A    between atoms: _267  and  _268
REMARK   93  A    between atoms: _271  and  _273
REMARK   94  A    between atoms: _273  and  _274
REMARK   95  A    between atoms: _273  and  _276
REMARK   96  A    between atoms: _279  and  _281
REMARK   97  A    between atoms: _281  and  _282
REMARK   98  A    between atoms: _281  and  _284
REMARK   99  A    between atoms: _284  and  _285
REMARK  100  A    between atoms: _288  and  _290
REMARK  101  A    between atoms: _290  and  _291
REMARK  102  A    between atoms: _293  and  _295
REMARK  103  A    between atoms: _295  and  _296
REMARK  104  A    between atoms: _298  and  _300
REMARK  105  A    between atoms: _300  and  _301
REMARK  106  A    between atoms: _300  and  _303
REMARK  107  A    between atoms: _303  and  _304
REMARK  108  A    between atoms: _306  and  _308
REMARK  109  A    between atoms: _308  and  _309
REMARK  110  A    between atoms: _308  and  _311
REMARK  111  A    between atoms: _311  and  _312
REMARK  112  A    between atoms: _315  and  _317
REMARK  113  A    between atoms: _317  and  _318
REMARK  114  A    between atoms: _317  and  _320
REMARK  115  A    between atoms: _320  and  _321
REMARK  116  A    between atoms: _324  and  _326
REMARK  117  A    between atoms: _326  and  _327
REMARK  118  A    between atoms: _326  and  _329
REMARK  119  A    between atoms: _329  and  _330
REMARK  120  A    between atoms: _334  and  _335
REMARK  121  A    between atoms: _341  and  _342
REMARK  122  A    between atoms: _347  and  _349
REMARK  123  A    between atoms: _349  and  _350
REMARK  124  A    between atoms: _349  and  _352
REMARK  125  A    between atoms: _352  and  _353
REMARK  126  A    between atoms: _356  and  _358
REMARK  127  A    between atoms: _358  and  _359
REMARK  128  A    between atoms: _358  and  _361
REMARK  129  A    between atoms: _361  and  _362
REMARK  130  A    between atoms: _365  and  _367
REMARK  131  A    between atoms: _367  and  _368
REMARK  132  A    between atoms: _367  and  _370
REMARK  133  A    between atoms: _372  and  _374
REMARK  134  A    between atoms: _374  and  _375
REMARK  135  A    between atoms: _374  and  _377
REMARK  136  A    between atoms: _380  and  _382
REMARK  137  A    between atoms: _382  and  _383
REMARK  138  A    between atoms: _382  and  _385
REMARK  139  A    between atoms: _385  and  _386
REMARK  140  A    between atoms: _396  and  _398
REMARK  141  A    between atoms: _398  and  _399
REMARK  142  A    between atoms: _398  and  _401
REMARK  143  A    between atoms: _401  and  _402
REMARK  144  A    between atoms: _407  and  _409
REMARK  145  A    between atoms: _409  and  _410
REMARK  146  A    between atoms: _409  and  _412
REMARK  147  A    between atoms: _412  and  _413
REMARK  148  A    between atoms: _413  and  _414
REMARK  149  A    between atoms: _414  and  _415
REMARK                            x       y       z     vdW  Elec       q    Type
REMARK                         _______ _______ _______ _____ _____    ______ ____
ROOT
ATOM      1  O   HOH     1      -0.865   9.120  14.860  0.00  0.00    +0.000 OA
ENDROOT
TORSDOF 0
REMARK  Name = ../refined-set-2016/3t5u/3t5u_pocket.pdb
REMARK  149 active torsions:
REMARK  status: ('A' for Active; 'I' for Inactive)
REMARK    1  A    between atoms: _1  and  _3
REMARK    2  A    between atoms: _3  and  _4
REMARK    3  A    between atoms: _3  and  _6
REMARK    4  A    between atoms: _6  and  _7
REMARK    5  A    between atoms: _17  and  _19
REMARK    6  A    between atoms: _19  and  _20
REMARK    7  A    between atoms: _19  and  _22
REMARK    8  A    between atoms: _22  and  _23
REMARK    9  A    between atoms: _28  and  _29
REMARK   10  A    between atoms: _31  and  _33
REMARK   11  A    between atoms: _33  and  _34
REMARK   12  A    between atoms: _33  and  _36
REMARK   13  A    between atoms: _36  and  _37
REMARK   14  A    between atoms: _47  and  _49
REMARK   15  A    between atoms: _49  and  _50
REMARK   16  A    between atoms: _49  and  _52
REMARK   17  A    between atoms: _52  and  _53
REMARK   18  A    between atoms: _56  and  _57
REMARK   19  A    between atoms: _62  and  _64
REMARK   20  A    between atoms: _64  and  _65
REMARK   21  A    between atoms: _64  and  _67
REMARK   22  A    between atoms: _67  and  _68
REMARK   23  A    between atoms: _73  and  _75
REMARK   24  A    between atoms: _75  and  _76
REMARK   25  A    between atoms: _79  and  _81
REMARK   26  A    between atoms: _81  and  _82
REMARK   27  A    between atoms: _81  and  _84
REMARK   28  A    between atoms: _84  and  _85
REMARK   29  A    between atoms: _90  and  _92
REMARK   30  A    between atoms: _92  and  _93
REMARK   31  A    between atoms: _92  and  _95
REMARK   32  A    between atoms: _95  and  _96
REMARK   33  A    between atoms: _99  and  _101
REMARK   34  A    between atoms: _101  and  _102
REMARK   35  A    between atoms: _101  and  _104
REMARK   36  A    between atoms: _104  and  _105
REMARK   37  A    between atoms: _105  and  _106
REMARK   38  A    between atoms: _111  and  _113
REMARK   39  A    between atoms: _113  and  _114
REMARK   40  A    between atoms: _113  and  _116
REMARK   41  A    between atoms: _116  and  _117
REMARK   42  A    between atoms: _123  and  _125
REMARK   43  A    between atoms: _136  and  _139
REMARK   44  A    between atoms: _139  and  _140
REMARK   45  A    between atoms: _148  and  _149
REMARK   46  A    between atoms: _157  and  _159
REMARK   47  A    between atoms: _159  and  _160
REMARK   48  A    between atoms: _159  and  _162
REMARK   49  A    between atoms: _162  and  _163
REMARK   50  A    between atoms: _163  and  _164
REMARK   51  A    between atoms: _167  and  _169
REMARK   52  A    between atoms: _169  and  _170
REMARK   53  A    between atoms: _169  and  _172
REMARK   54  A    between atoms: _172  and  _173
REMARK   55  A    between atoms: _178  and  _180
REMARK   56  A    between atoms: _180  and  _181
REMARK   57  A    between atoms: _180  and  _183
REMARK   58  A    between atoms: _183  and  _184
REMARK   59  A    between atoms: _184  and  _185
REMARK   60  A    between atoms: _188  and  _190
REMARK   61  A    between atoms: _190  and  _191
REMARK   62  A    between atoms: _190  and  _193
REMARK   63  A    between atoms: _193  and  _194
REMARK   64  A    between atoms: _197  and  _199
REMARK   65  A    between atoms: _199  and  _200
REMARK   66  A    between atoms: _199  and  _202
REMARK   67  A    between atoms: _202  and  _203
REMARK   68  A    between atoms: _204  and  ZN_424
REMARK   69  A    between atoms: _208  and  _210
REMARK   70  A    between atoms: _210  and  _211
REMARK   71  A    between atoms: _210  and  _213
REMARK   72  A    between atoms: _213  and  _214
REMARK   73  A    between atoms: _217  and  _219
REMARK   74  A    between atoms: _219  and  _220
REMARK   75  A    between atoms: _219  and  _222
REMARK   76  A    between atoms: _225  and  _227
REMARK   77  A    between atoms: _227  and  _228
REMARK   78  A    between atoms: _227  and  _230
REMARK   79  A    between atoms: _230  and  _231
REMARK   80  A    between atoms: _236  and  _238
REMARK   81  A    between atoms: _238  and  _239
REMARK   82  A    between atoms: _238  and  _241
REMARK   83  A    between atoms: _241  and  _242
REMARK   84  A    between atoms: _248  and  _250
REMARK   85  A    between atoms: _250  and  _251
REMARK   86  A    between atoms: _250  and  _253
REMARK   87  A    between atoms: _256  and  _258
REMARK   88  A    between atoms: _258  and  _259
REMARK   89  A    between atoms: _258  and  _261
REMARK   90  A    between atoms: _261  and  _262
REMARK   91  A    between atoms: _265  and  _267
REMARK   92  A    between atoms: _267  and  _268
REMARK   93  A    between atoms: _271  and  _273
REMARK   94  A    between atoms: _273  and  _274
REMARK   95  A    between atoms: _273  and  _276
REMARK   96  A    between atoms: _279  and  _281
REMARK   97  A    between atoms: _281  and  _282
REMARK   98  A    between atoms: _281  and  _284
REMARK   99  A    between atoms: _284  and  _285
REMARK  100  A    between atoms: _288  and  _290
REMARK  101  A    between atoms: _290  and  _291
REMARK  102  A    between atoms: _293  and  _295
REMARK  103  A    between atoms: _295  and  _296
REMARK  104  A    between atoms: _298  and  _300
REMARK  105  A    between atoms: _300  and  _301
REMARK  106  A    between atoms: _300  and  _303
REMARK  107  A    between atoms: _303  and  _304
REMARK  108  A    between atoms: _306  and  _308
REMARK  109  A    between atoms: _308  and  _309
REMARK  110  A    between atoms: _308  and  _311
REMARK  111  A    between atoms: _311  and  _312
REMARK  112  A    between atoms: _315  and  _317
REMARK  113  A    between atoms: _317  and  _318
REMARK  114  A    between atoms: _317  and  _320
REMARK  115  A    between atoms: _320  and  _321
REMARK  116  A    between atoms: _324  and  _326
REMARK  117  A    between atoms: _326  and  _327
REMARK  118  A    between atoms: _326  and  _329
REMARK  119  A    between atoms: _329  and  _330
REMARK  120  A    between atoms: _334  and  _335
REMARK  121  A    between atoms: _341  and  _342
REMARK  122  A    between atoms: _347  and  _349
REMARK  123  A    between atoms: _349  and  _350
REMARK  124  A    between atoms: _349  and  _352
REMARK  125  A    between atoms: _352  and  _353
REMARK  126  A    between atoms: _356  and  _358
REMARK  127  A    between atoms: _358  and  _359
REMARK  128  A    between atoms: _358  and  _361
REMARK  129  A    between atoms: _361  and  _362
REMARK  130  A    between atoms: _365  and  _367
REMARK  131  A    between atoms: _367  and  _368
REMARK  132  A    between atoms: _367  and  _370
REMARK  133  A    between atoms: _372  and  _374
REMARK  134  A    between atoms: _374  and  _375
REMARK  135  A    between atoms: _374  and  _377
REMARK  136  A    between atoms: _380  and  _382
REMARK  137  A    between atoms: _382  and  _383
REMARK  138  A    between atoms: _382  and  _385
REMARK  139  A    between atoms: _385  and  _386
REMARK  140  A    between atoms: _396  and  _398
REMARK  141  A    between atoms: _398  and  _399
REMARK  142  A    between atoms: _398  and  _401
REMARK  143  A    between atoms: _401  and  _402
REMARK  144  A    between atoms: _407  and  _409
REMARK  145  A    between atoms: _409  and  _410
REMARK  146  A    between atoms: _409  and  _412
REMARK  147  A    between atoms: _412  and  _413
REMARK  148  A    between atoms: _413  and  _414
REMARK  149  A    between atoms: _414  and  _415
REMARK                            x       y       z     vdW  Elec       q    Type
REMARK                         _______ _______ _______ _____ _____    ______ ____
ROOT
ATOM      1  O   HOH     1      -1.584   7.079  13.626  0.00  0.00    +0.000 OA
ENDROOT
TORSDOF 0
REMARK  Name = ../refined-set-2016/3t5u/3t5u_pocket.pdb
REMARK  149 active torsions:
REMARK  status: ('A' for Active; 'I' for Inactive)
REMARK    1  A    between atoms: _1  and  _3
REMARK    2  A    between atoms: _3  and  _4
REMARK    3  A    between atoms: _3  and  _6
REMARK    4  A    between atoms: _6  and  _7
REMARK    5  A    between atoms: _17  and  _19
REMARK    6  A    between atoms: _19  and  _20
REMARK    7  A    between atoms: _19  and  _22
REMARK    8  A    between atoms: _22  and  _23
REMARK    9  A    between atoms: _28  and  _29
REMARK   10  A    between atoms: _31  and  _33
REMARK   11  A    between atoms: _33  and  _34
REMARK   12  A    between atoms: _33  and  _36
REMARK   13  A    between atoms: _36  and  _37
REMARK   14  A    between atoms: _47  and  _49
REMARK   15  A    between atoms: _49  and  _50
REMARK   16  A    between atoms: _49  and  _52
REMARK   17  A    between atoms: _52  and  _53
REMARK   18  A    between atoms: _56  and  _57
REMARK   19  A    between atoms: _62  and  _64
REMARK   20  A    between atoms: _64  and  _65
REMARK   21  A    between atoms: _64  and  _67
REMARK   22  A    between atoms: _67  and  _68
REMARK   23  A    between atoms: _73  and  _75
REMARK   24  A    between atoms: _75  and  _76
REMARK   25  A    between atoms: _79  and  _81
REMARK   26  A    between atoms: _81  and  _82
REMARK   27  A    between atoms: _81  and  _84
REMARK   28  A    between atoms: _84  and  _85
REMARK   29  A    between atoms: _90  and  _92
REMARK   30  A    between atoms: _92  and  _93
REMARK   31  A    between atoms: _92  and  _95
REMARK   32  A    between atoms: _95  and  _96
REMARK   33  A    between atoms: _99  and  _101
REMARK   34  A    between atoms: _101  and  _102
REMARK   35  A    between atoms: _101  and  _104
REMARK   36  A    between atoms: _104  and  _105
REMARK   37  A    between atoms: _105  and  _106
REMARK   38  A    between atoms: _111  and  _113
REMARK   39  A    between atoms: _113  and  _114
REMARK   40  A    between atoms: _113  and  _116
REMARK   41  A    between atoms: _116  and  _117
REMARK   42  A    between atoms: _123  and  _125
REMARK   43  A    between atoms: _136  and  _139
REMARK   44  A    between atoms: _139  and  _140
REMARK   45  A    between atoms: _148  and  _149
REMARK   46  A    between atoms: _157  and  _159
REMARK   47  A    between atoms: _159  and  _160
REMARK   48  A    between atoms: _159  and  _162
REMARK   49  A    between atoms: _162  and  _163
REMARK   50  A    between atoms: _163  and  _164
REMARK   51  A    between atoms: _167  and  _169
REMARK   52  A    between atoms: _169  and  _170
REMARK   53  A    between atoms: _169  and  _172
REMARK   54  A    between atoms: _172  and  _173
REMARK   55  A    between atoms: _178  and  _180
REMARK   56  A    between atoms: _180  and  _181
REMARK   57  A    between atoms: _180  and  _183
REMARK   58  A    between atoms: _183  and  _184
REMARK   59  A    between atoms: _184  and  _185
REMARK   60  A    between atoms: _188  and  _190
REMARK   61  A    between atoms: _190  and  _191
REMARK   62  A    between atoms: _190  and  _193
REMARK   63  A    between atoms: _193  and  _194
REMARK   64  A    between atoms: _197  and  _199
REMARK   65  A    between atoms: _199  and  _200
REMARK   66  A    between atoms: _199  and  _202
REMARK   67  A    between atoms: _202  and  _203
REMARK   68  A    between atoms: _204  and  ZN_424
REMARK   69  A    between atoms: _208  and  _210
REMARK   70  A    between atoms: _210  and  _211
REMARK   71  A    between atoms: _210  and  _213
REMARK   72  A    between atoms: _213  and  _214
REMARK   73  A    between atoms: _217  and  _219
REMARK   74  A    between atoms: _219  and  _220
REMARK   75  A    between atoms: _219  and  _222
REMARK   76  A    between atoms: _225  and  _227
REMARK   77  A    between atoms: _227  and  _228
REMARK   78  A    between atoms: _227  and  _230
REMARK   79  A    between atoms: _230  and  _231
REMARK   80  A    between atoms: _236  and  _238
REMARK   81  A    between atoms: _238  and  _239
REMARK   82  A    between atoms: _238  and  _241
REMARK   83  A    between atoms: _241  and  _242
REMARK   84  A    between atoms: _248  and  _250
REMARK   85  A    between atoms: _250  and  _251
REMARK   86  A    between atoms: _250  and  _253
REMARK   87  A    between atoms: _256  and  _258
REMARK   88  A    between atoms: _258  and  _259
REMARK   89  A    between atoms: _258  and  _261
REMARK   90  A    between atoms: _261  and  _262
REMARK   91  A    between atoms: _265  and  _267
REMARK   92  A    between atoms: _267  and  _268
REMARK   93  A    between atoms: _271  and  _273
REMARK   94  A    between atoms: _273  and  _274
REMARK   95  A    between atoms: _273  and  _276
REMARK   96  A    between atoms: _279  and  _281
REMARK   97  A    between atoms: _281  and  _282
REMARK   98  A    between atoms: _281  and  _284
REMARK   99  A    between atoms: _284  and  _285
REMARK  100  A    between atoms: _288  and  _290
REMARK  101  A    between atoms: _290  and  _291
REMARK  102  A    between atoms: _293  and  _295
REMARK  103  A    between atoms: _295  and  _296
REMARK  104  A    between atoms: _298  and  _300
REMARK  105  A    between atoms: _300  and  _301
REMARK  106  A    between atoms: _300  and  _303
REMARK  107  A    between atoms: _303  and  _304
REMARK  108  A    between atoms: _306  and  _308
REMARK  109  A    between atoms: _308  and  _309
REMARK  110  A    between atoms: _308  and  _311
REMARK  111  A    between atoms: _311  and  _312
REMARK  112  A    between atoms: _315  and  _317
REMARK  113  A    between atoms: _317  and  _318
REMARK  114  A    between atoms: _317  and  _320
REMARK  115  A    between atoms: _320  and  _321
REMARK  116  A    between atoms: _324  and  _326
REMARK  117  A    between atoms: _326  and  _327
REMARK  118  A    between atoms: _326  and  _329
REMARK  119  A    between atoms: _329  and  _330
REMARK  120  A    between atoms: _334  and  _335
REMARK  121  A    between atoms: _341  and  _342
REMARK  122  A    between atoms: _347  and  _349
REMARK  123  A    between atoms: _349  and  _350
REMARK  124  A    between atoms: _349  and  _352
REMARK  125  A    between atoms: _352  and  _353
REMARK  126  A    between atoms: _356  and  _358
REMARK  127  A    between atoms: _358  and  _359
REMARK  128  A    between atoms: _358  and  _361
REMARK  129  A    between atoms: _361  and  _362
REMARK  130  A    between atoms: _365  and  _367
REMARK  131  A    between atoms: _367  and  _368
REMARK  132  A    between atoms: _367  and  _370
REMARK  133  A    between atoms: _372  and  _374
REMARK  134  A    between atoms: _374  and  _375
REMARK  135  A    between atoms: _374  and  _377
REMARK  136  A    between atoms: _380  and  _382
REMARK  137  A    between atoms: _382  and  _383
REMARK  138  A    between atoms: _382  and  _385
REMARK  139  A    between atoms: _385  and  _386
REMARK  140  A    between atoms: _396  and  _398
REMARK  141  A    between atoms: _398  and  _399
REMARK  142  A    between atoms: _398  and  _401
REMARK  143  A    between atoms: _401  and  _402
REMARK  144  A    between atoms: _407  and  _409
REMARK  145  A    between atoms: _409  and  _410
REMARK  146  A    between atoms: _409  and  _412
REMARK  147  A    between atoms: _412  and  _413
REMARK  148  A    between atoms: _413  and  _414
REMARK  149  A    between atoms: _414  and  _415
REMARK                            x       y       z     vdW  Elec       q    Type
REMARK                         _______ _______ _______ _____ _____    ______ ____
ROOT
ATOM      1  O   HOH     1      -4.532   7.502  12.249  0.00  0.00    +0.000 OA
ENDROOT
TORSDOF 0
REMARK  Name = ../refined-set-2016/3t5u/3t5u_pocket.pdb
REMARK  149 active torsions:
REMARK  status: ('A' for Active; 'I' for Inactive)
REMARK    1  A    between atoms: _1  and  _3
REMARK    2  A    between atoms: _3  and  _4
REMARK    3  A    between atoms: _3  and  _6
REMARK    4  A    between atoms: _6  and  _7
REMARK    5  A    between atoms: _17  and  _19
REMARK    6  A    between atoms: _19  and  _20
REMARK    7  A    between atoms: _19  and  _22
REMARK    8  A    between atoms: _22  and  _23
REMARK    9  A    between atoms: _28  and  _29
REMARK   10  A    between atoms: _31  and  _33
REMARK   11  A    between atoms: _33  and  _34
REMARK   12  A    between atoms: _33  and  _36
REMARK   13  A    between atoms: _36  and  _37
REMARK   14  A    between atoms: _47  and  _49
REMARK   15  A    between atoms: _49  and  _50
REMARK   16  A    between atoms: _49  and  _52
REMARK   17  A    between atoms: _52  and  _53
REMARK   18  A    between atoms: _56  and  _57
REMARK   19  A    between atoms: _62  and  _64
REMARK   20  A    between atoms: _64  and  _65
REMARK   21  A    between atoms: _64  and  _67
REMARK   22  A    between atoms: _67  and  _68
REMARK   23  A    between atoms: _73  and  _75
REMARK   24  A    between atoms: _75  and  _76
REMARK   25  A    between atoms: _79  and  _81
REMARK   26  A    between atoms: _81  and  _82
REMARK   27  A    between atoms: _81  and  _84
REMARK   28  A    between atoms: _84  and  _85
REMARK   29  A    between atoms: _90  and  _92
REMARK   30  A    between atoms: _92  and  _93
REMARK   31  A    between atoms: _92  and  _95
REMARK   32  A    between atoms: _95  and  _96
REMARK   33  A    between atoms: _99  and  _101
REMARK   34  A    between atoms: _101  and  _102
REMARK   35  A    between atoms: _101  and  _104
REMARK   36  A    between atoms: _104  and  _105
REMARK   37  A    between atoms: _105  and  _106
REMARK   38  A    between atoms: _111  and  _113
REMARK   39  A    between atoms: _113  and  _114
REMARK   40  A    between atoms: _113  and  _116
REMARK   41  A    between atoms: _116  and  _117
REMARK   42  A    between atoms: _123  and  _125
REMARK   43  A    between atoms: _136  and  _139
REMARK   44  A    between atoms: _139  and  _140
REMARK   45  A    between atoms: _148  and  _149
REMARK   46  A    between atoms: _157  and  _159
REMARK   47  A    between atoms: _159  and  _160
REMARK   48  A    between atoms: _159  and  _162
REMARK   49  A    between atoms: _162  and  _163
REMARK   50  A    between atoms: _163  and  _164
REMARK   51  A    between atoms: _167  and  _169
REMARK   52  A    between atoms: _169  and  _170
REMARK   53  A    between atoms: _169  and  _172
REMARK   54  A    between atoms: _172  and  _173
REMARK   55  A    between atoms: _178  and  _180
REMARK   56  A    between atoms: _180  and  _181
REMARK   57  A    between atoms: _180  and  _183
REMARK   58  A    between atoms: _183  and  _184
REMARK   59  A    between atoms: _184  and  _185
REMARK   60  A    between atoms: _188  and  _190
REMARK   61  A    between atoms: _190  and  _191
REMARK   62  A    between atoms: _190  and  _193
REMARK   63  A    between atoms: _193  and  _194
REMARK   64  A    between atoms: _197  and  _199
REMARK   65  A    between atoms: _199  and  _200
REMARK   66  A    between atoms: _199  and  _202
REMARK   67  A    between atoms: _202  and  _203
REMARK   68  A    between atoms: _204  and  ZN_424
REMARK   69  A    between atoms: _208  and  _210
REMARK   70  A    between atoms: _210  and  _211
REMARK   71  A    between atoms: _210  and  _213
REMARK   72  A    between atoms: _213  and  _214
REMARK   73  A    between atoms: _217  and  _219
REMARK   74  A    between atoms: _219  and  _220
REMARK   75  A    between atoms: _219  and  _222
REMARK   76  A    between atoms: _225  and  _227
REMARK   77  A    between atoms: _227  and  _228
REMARK   78  A    between atoms: _227  and  _230
REMARK   79  A    between atoms: _230  and  _231
REMARK   80  A    between atoms: _236  and  _238
REMARK   81  A    between atoms: _238  and  _239
REMARK   82  A    between atoms: _238  and  _241
REMARK   83  A    between atoms: _241  and  _242
REMARK   84  A    between atoms: _248  and  _250
REMARK   85  A    between atoms: _250  and  _251
REMARK   86  A    between atoms: _250  and  _253
REMARK   87  A    between atoms: _256  and  _258
REMARK   88  A    between atoms: _258  and  _259
REMARK   89  A    between atoms: _258  and  _261
REMARK   90  A    between atoms: _261  and  _262
REMARK   91  A    between atoms: _265  and  _267
REMARK   92  A    between atoms: _267  and  _268
REMARK   93  A    between atoms: _271  and  _273
REMARK   94  A    between atoms: _273  and  _274
REMARK   95  A    between atoms: _273  and  _276
REMARK   96  A    between atoms: _279  and  _281
REMARK   97  A    between atoms: _281  and  _282
REMARK   98  A    between atoms: _281  and  _284
REMARK   99  A    between atoms: _284  and  _285
REMARK  100  A    between atoms: _288  and  _290
REMARK  101  A    between atoms: _290  and  _291
REMARK  102  A    between atoms: _293  and  _295
REMARK  103  A    between atoms: _295  and  _296
REMARK  104  A    between atoms: _298  and  _300
REMARK  105  A    between atoms: _300  and  _301
REMARK  106  A    between atoms: _300  and  _303
REMARK  107  A    between atoms: _303  and  _304
REMARK  108  A    between atoms: _306  and  _308
REMARK  109  A    between atoms: _308  and  _309
REMARK  110  A    between atoms: _308  and  _311
REMARK  111  A    between atoms: _311  and  _312
REMARK  112  A    between atoms: _315  and  _317
REMARK  113  A    between atoms: _317  and  _318
REMARK  114  A    between atoms: _317  and  _320
REMARK  115  A    between atoms: _320  and  _321
REMARK  116  A    between atoms: _324  and  _326
REMARK  117  A    between atoms: _326  and  _327
REMARK  118  A    between atoms: _326  and  _329
REMARK  119  A    between atoms: _329  and  _330
REMARK  120  A    between atoms: _334  and  _335
REMARK  121  A    between atoms: _341  and  _342
REMARK  122  A    between atoms: _347  and  _349
REMARK  123  A    between atoms: _349  and  _350
REMARK  124  A    between atoms: _349  and  _352
REMARK  125  A    between atoms: _352  and  _353
REMARK  126  A    between atoms: _356  and  _358
REMARK  127  A    between atoms: _358  and  _359
REMARK  128  A    between atoms: _358  and  _361
REMARK  129  A    between atoms: _361  and  _362
REMARK  130  A    between atoms: _365  and  _367
REMARK  131  A    between atoms: _367  and  _368
REMARK  132  A    between atoms: _367  and  _370
REMARK  133  A    between atoms: _372  and  _374
REMARK  134  A    between atoms: _374  and  _375
REMARK  135  A    between atoms: _374  and  _377
REMARK  136  A    between atoms: _380  and  _382
REMARK  137  A    between atoms: _382  and  _383
REMARK  138  A    between atoms: _382  and  _385
REMARK  139  A    between atoms: _385  and  _386
REMARK  140  A    between atoms: _396  and  _398
REMARK  141  A    between atoms: _398  and  _399
REMARK  142  A    between atoms: _398  and  _401
REMARK  143  A    between atoms: _401  and  _402
REMARK  144  A    between atoms: _407  and  _409
REMARK  145  A    between atoms: _409  and  _410
REMARK  146  A    between atoms: _409  and  _412
REMARK  147  A    between atoms: _412  and  _413
REMARK  148  A    between atoms: _413  and  _414
REMARK  149  A    between atoms: _414  and  _415
REMARK                            x       y       z     vdW  Elec       q    Type
REMARK                         _______ _______ _______ _____ _____    ______ ____
ROOT
ATOM      1  O   HOH     1      -6.715   6.917  11.390  0.00  0.00    +0.000 OA
ENDROOT
TORSDOF 0
REMARK  Name = ../refined-set-2016/3t5u/3t5u_pocket.pdb
REMARK  149 active torsions:
REMARK  status: ('A' for Active; 'I' for Inactive)
REMARK    1  A    between atoms: _1  and  _3
REMARK    2  A    between atoms: _3  and  _4
REMARK    3  A    between atoms: _3  and  _6
REMARK    4  A    between atoms: _6  and  _7
REMARK    5  A    between atoms: _17  and  _19
REMARK    6  A    between atoms: _19  and  _20
REMARK    7  A    between atoms: _19  and  _22
REMARK    8  A    between atoms: _22  and  _23
REMARK    9  A    between atoms: _28  and  _29
REMARK   10  A    between atoms: _31  and  _33
REMARK   11  A    between atoms: _33  and  _34
REMARK   12  A    between atoms: _33  and  _36
REMARK   13  A    between atoms: _36  and  _37
REMARK   14  A    between atoms: _47  and  _49
REMARK   15  A    between atoms: _49  and  _50
REMARK   16  A    between atoms: _49  and  _52
REMARK   17  A    between atoms: _52  and  _53
REMARK   18  A    between atoms: _56  and  _57
REMARK   19  A    between atoms: _62  and  _64
REMARK   20  A    between atoms: _64  and  _65
REMARK   21  A    between atoms: _64  and  _67
REMARK   22  A    between atoms: _67  and  _68
REMARK   23  A    between atoms: _73  and  _75
REMARK   24  A    between atoms: _75  and  _76
REMARK   25  A    between atoms: _79  and  _81
REMARK   26  A    between atoms: _81  and  _82
REMARK   27  A    between atoms: _81  and  _84
REMARK   28  A    between atoms: _84  and  _85
REMARK   29  A    between atoms: _90  and  _92
REMARK   30  A    between atoms: _92  and  _93
REMARK   31  A    between atoms: _92  and  _95
REMARK   32  A    between atoms: _95  and  _96
REMARK   33  A    between atoms: _99  and  _101
REMARK   34  A    between atoms: _101  and  _102
REMARK   35  A    between atoms: _101  and  _104
REMARK   36  A    between atoms: _104  and  _105
REMARK   37  A    between atoms: _105  and  _106
REMARK   38  A    between atoms: _111  and  _113
REMARK   39  A    between atoms: _113  and  _114
REMARK   40  A    between atoms: _113  and  _116
REMARK   41  A    between atoms: _116  and  _117
REMARK   42  A    between atoms: _123  and  _125
REMARK   43  A    between atoms: _136  and  _139
REMARK   44  A    between atoms: _139  and  _140
REMARK   45  A    between atoms: _148  and  _149
REMARK   46  A    between atoms: _157  and  _159
REMARK   47  A    between atoms: _159  and  _160
REMARK   48  A    between atoms: _159  and  _162
REMARK   49  A    between atoms: _162  and  _163
REMARK   50  A    between atoms: _163  and  _164
REMARK   51  A    between atoms: _167  and  _169
REMARK   52  A    between atoms: _169  and  _170
REMARK   53  A    between atoms: _169  and  _172
REMARK   54  A    between atoms: _172  and  _173
REMARK   55  A    between atoms: _178  and  _180
REMARK   56  A    between atoms: _180  and  _181
REMARK   57  A    between atoms: _180  and  _183
REMARK   58  A    between atoms: _183  and  _184
REMARK   59  A    between atoms: _184  and  _185
REMARK   60  A    between atoms: _188  and  _190
REMARK   61  A    between atoms: _190  and  _191
REMARK   62  A    between atoms: _190  and  _193
REMARK   63  A    between atoms: _193  and  _194
REMARK   64  A    between atoms: _197  and  _199
REMARK   65  A    between atoms: _199  and  _200
REMARK   66  A    between atoms: _199  and  _202
REMARK   67  A    between atoms: _202  and  _203
REMARK   68  A    between atoms: _204  and  ZN_424
REMARK   69  A    between atoms: _208  and  _210
REMARK   70  A    between atoms: _210  and  _211
REMARK   71  A    between atoms: _210  and  _213
REMARK   72  A    between atoms: _213  and  _214
REMARK   73  A    between atoms: _217  and  _219
REMARK   74  A    between atoms: _219  and  _220
REMARK   75  A    between atoms: _219  and  _222
REMARK   76  A    between atoms: _225  and  _227
REMARK   77  A    between atoms: _227  and  _228
REMARK   78  A    between atoms: _227  and  _230
REMARK   79  A    between atoms: _230  and  _231
REMARK   80  A    between atoms: _236  and  _238
REMARK   81  A    between atoms: _238  and  _239
REMARK   82  A    between atoms: _238  and  _241
REMARK   83  A    between atoms: _241  and  _242
REMARK   84  A    between atoms: _248  and  _250
REMARK   85  A    between atoms: _250  and  _251
REMARK   86  A    between atoms: _250  and  _253
REMARK   87  A    between atoms: _256  and  _258
REMARK   88  A    between atoms: _258  and  _259
REMARK   89  A    between atoms: _258  and  _261
REMARK   90  A    between atoms: _261  and  _262
REMARK   91  A    between atoms: _265  and  _267
REMARK   92  A    between atoms: _267  and  _268
REMARK   93  A    between atoms: _271  and  _273
REMARK   94  A    between atoms: _273  and  _274
REMARK   95  A    between atoms: _273  and  _276
REMARK   96  A    between atoms: _279  and  _281
REMARK   97  A    between atoms: _281  and  _282
REMARK   98  A    between atoms: _281  and  _284
REMARK   99  A    between atoms: _284  and  _285
REMARK  100  A    between atoms: _288  and  _290
REMARK  101  A    between atoms: _290  and  _291
REMARK  102  A    between atoms: _293  and  _295
REMARK  103  A    between atoms: _295  and  _296
REMARK  104  A    between atoms: _298  and  _300
REMARK  105  A    between atoms: _300  and  _301
REMARK  106  A    between atoms: _300  and  _303
REMARK  107  A    between atoms: _303  and  _304
REMARK  108  A    between atoms: _306  and  _308
REMARK  109  A    between atoms: _308  and  _309
REMARK  110  A    between atoms: _308  and  _311
REMARK  111  A    between atoms: _311  and  _312
REMARK  112  A    between atoms: _315  and  _317
REMARK  113  A    between atoms: _317  and  _318
REMARK  114  A    between atoms: _317  and  _320
REMARK  115  A    between atoms: _320  and  _321
REMARK  116  A    between atoms: _324  and  _326
REMARK  117  A    between atoms: _326  and  _327
REMARK  118  A    between atoms: _326  and  _329
REMARK  119  A    between atoms: _329  and  _330
REMARK  120  A    between atoms: _334  and  _335
REMARK  121  A    between atoms: _341  and  _342
REMARK  122  A    between atoms: _347  and  _349
REMARK  123  A    between atoms: _349  and  _350
REMARK  124  A    between atoms: _349  and  _352
REMARK  125  A    between atoms: _352  and  _353
REMARK  126  A    between atoms: _356  and  _358
REMARK  127  A    between atoms: _358  and  _359
REMARK  128  A    between atoms: _358  and  _361
REMARK  129  A    between atoms: _361  and  _362
REMARK  130  A    between atoms: _365  and  _367
REMARK  131  A    between atoms: _367  and  _368
REMARK  132  A    between atoms: _367  and  _370
REMARK  133  A    between atoms: _372  and  _374
REMARK  134  A    between atoms: _374  and  _375
REMARK  135  A    between atoms: _374  and  _377
REMARK  136  A    between atoms: _380  and  _382
REMARK  137  A    between atoms: _382  and  _383
REMARK  138  A    between atoms: _382  and  _385
REMARK  139  A    between atoms: _385  and  _386
REMARK  140  A    between atoms: _396  and  _398
REMARK  141  A    between atoms: _398  and  _399
REMARK  142  A    between atoms: _398  and  _401
REMARK  143  A    between atoms: _401  and  _402
REMARK  144  A    between atoms: _407  and  _409
REMARK  145  A    between atoms: _409  and  _410
REMARK  146  A    between atoms: _409  and  _412
REMARK  147  A    between atoms: _412  and  _413
REMARK  148  A    between atoms: _413  and  _414
REMARK  149  A    between atoms: _414  and  _415
REMARK                            x       y       z     vdW  Elec       q    Type
REMARK                         _______ _______ _______ _____ _____    ______ ____
ROOT
ATOM      1  O   HOH     1      -5.916   9.502  10.788  0.00  0.00    +0.000 OA
ENDROOT
TORSDOF 0
REMARK  Name = ../refined-set-2016/3t5u/3t5u_pocket.pdb
REMARK  149 active torsions:
REMARK  status: ('A' for Active; 'I' for Inactive)
REMARK    1  A    between atoms: _1  and  _3
REMARK    2  A    between atoms: _3  and  _4
REMARK    3  A    between atoms: _3  and  _6
REMARK    4  A    between atoms: _6  and  _7
REMARK    5  A    between atoms: _17  and  _19
REMARK    6  A    between atoms: _19  and  _20
REMARK    7  A    between atoms: _19  and  _22
REMARK    8  A    between atoms: _22  and  _23
REMARK    9  A    between atoms: _28  and  _29
REMARK   10  A    between atoms: _31  and  _33
REMARK   11  A    between atoms: _33  and  _34
REMARK   12  A    between atoms: _33  and  _36
REMARK   13  A    between atoms: _36  and  _37
REMARK   14  A    between atoms: _47  and  _49
REMARK   15  A    between atoms: _49  and  _50
REMARK   16  A    between atoms: _49  and  _52
REMARK   17  A    between atoms: _52  and  _53
REMARK   18  A    between atoms: _56  and  _57
REMARK   19  A    between atoms: _62  and  _64
REMARK   20  A    between atoms: _64  and  _65
REMARK   21  A    between atoms: _64  and  _67
REMARK   22  A    between atoms: _67  and  _68
REMARK   23  A    between atoms: _73  and  _75
REMARK   24  A    between atoms: _75  and  _76
REMARK   25  A    between atoms: _79  and  _81
REMARK   26  A    between atoms: _81  and  _82
REMARK   27  A    between atoms: _81  and  _84
REMARK   28  A    between atoms: _84  and  _85
REMARK   29  A    between atoms: _90  and  _92
REMARK   30  A    between atoms: _92  and  _93
REMARK   31  A    between atoms: _92  and  _95
REMARK   32  A    between atoms: _95  and  _96
REMARK   33  A    between atoms: _99  and  _101
REMARK   34  A    between atoms: _101  and  _102
REMARK   35  A    between atoms: _101  and  _104
REMARK   36  A    between atoms: _104  and  _105
REMARK   37  A    between atoms: _105  and  _106
REMARK   38  A    between atoms: _111  and  _113
REMARK   39  A    between atoms: _113  and  _114
REMARK   40  A    between atoms: _113  and  _116
REMARK   41  A    between atoms: _116  and  _117
REMARK   42  A    between atoms: _123  and  _125
REMARK   43  A    between atoms: _136  and  _139
REMARK   44  A    between atoms: _139  and  _140
REMARK   45  A    between atoms: _148  and  _149
REMARK   46  A    between atoms: _157  and  _159
REMARK   47  A    between atoms: _159  and  _160
REMARK   48  A    between atoms: _159  and  _162
REMARK   49  A    between atoms: _162  and  _163
REMARK   50  A    between atoms: _163  and  _164
REMARK   51  A    between atoms: _167  and  _169
REMARK   52  A    between atoms: _169  and  _170
REMARK   53  A    between atoms: _169  and  _172
REMARK   54  A    between atoms: _172  and  _173
REMARK   55  A    between atoms: _178  and  _180
REMARK   56  A    between atoms: _180  and  _181
REMARK   57  A    between atoms: _180  and  _183
REMARK   58  A    between atoms: _183  and  _184
REMARK   59  A    between atoms: _184  and  _185
REMARK   60  A    between atoms: _188  and  _190
REMARK   61  A    between atoms: _190  and  _191
REMARK   62  A    between atoms: _190  and  _193
REMARK   63  A    between atoms: _193  and  _194
REMARK   64  A    between atoms: _197  and  _199
REMARK   65  A    between atoms: _199  and  _200
REMARK   66  A    between atoms: _199  and  _202
REMARK   67  A    between atoms: _202  and  _203
REMARK   68  A    between atoms: _204  and  ZN_424
REMARK   69  A    between atoms: _208  and  _210
REMARK   70  A    between atoms: _210  and  _211
REMARK   71  A    between atoms: _210  and  _213
REMARK   72  A    between atoms: _213  and  _214
REMARK   73  A    between atoms: _217  and  _219
REMARK   74  A    between atoms: _219  and  _220
REMARK   75  A    between atoms: _219  and  _222
REMARK   76  A    between atoms: _225  and  _227
REMARK   77  A    between atoms: _227  and  _228
REMARK   78  A    between atoms: _227  and  _230
REMARK   79  A    between atoms: _230  and  _231
REMARK   80  A    between atoms: _236  and  _238
REMARK   81  A    between atoms: _238  and  _239
REMARK   82  A    between atoms: _238  and  _241
REMARK   83  A    between atoms: _241  and  _242
REMARK   84  A    between atoms: _248  and  _250
REMARK   85  A    between atoms: _250  and  _251
REMARK   86  A    between atoms: _250  and  _253
REMARK   87  A    between atoms: _256  and  _258
REMARK   88  A    between atoms: _258  and  _259
REMARK   89  A    between atoms: _258  and  _261
REMARK   90  A    between atoms: _261  and  _262
REMARK   91  A    between atoms: _265  and  _267
REMARK   92  A    between atoms: _267  and  _268
REMARK   93  A    between atoms: _271  and  _273
REMARK   94  A    between atoms: _273  and  _274
REMARK   95  A    between atoms: _273  and  _276
REMARK   96  A    between atoms: _279  and  _281
REMARK   97  A    between atoms: _281  and  _282
REMARK   98  A    between atoms: _281  and  _284
REMARK   99  A    between atoms: _284  and  _285
REMARK  100  A    between atoms: _288  and  _290
REMARK  101  A    between atoms: _290  and  _291
REMARK  102  A    between atoms: _293  and  _295
REMARK  103  A    between atoms: _295  and  _296
REMARK  104  A    between atoms: _298  and  _300
REMARK  105  A    between atoms: _300  and  _301
REMARK  106  A    between atoms: _300  and  _303
REMARK  107  A    between atoms: _303  and  _304
REMARK  108  A    between atoms: _306  and  _308
REMARK  109  A    between atoms: _308  and  _309
REMARK  110  A    between atoms: _308  and  _311
REMARK  111  A    between atoms: _311  and  _312
REMARK  112  A    between atoms: _315  and  _317
REMARK  113  A    between atoms: _317  and  _318
REMARK  114  A    between atoms: _317  and  _320
REMARK  115  A    between atoms: _320  and  _321
REMARK  116  A    between atoms: _324  and  _326
REMARK  117  A    between atoms: _326  and  _327
REMARK  118  A    between atoms: _326  and  _329
REMARK  119  A    between atoms: _329  and  _330
REMARK  120  A    between atoms: _334  and  _335
REMARK  121  A    between atoms: _341  and  _342
REMARK  122  A    between atoms: _347  and  _349
REMARK  123  A    between atoms: _349  and  _350
REMARK  124  A    between atoms: _349  and  _352
REMARK  125  A    between atoms: _352  and  _353
REMARK  126  A    between atoms: _356  and  _358
REMARK  127  A    between atoms: _358  and  _359
REMARK  128  A    between atoms: _358  and  _361
REMARK  129  A    between atoms: _361  and  _362
REMARK  130  A    between atoms: _365  and  _367
REMARK  131  A    between atoms: _367  and  _368
REMARK  132  A    between atoms: _367  and  _370
REMARK  133  A    between atoms: _372  and  _374
REMARK  134  A    between atoms: _374  and  _375
REMARK  135  A    between atoms: _374  and  _377
REMARK  136  A    between atoms: _380  and  _382
REMARK  137  A    between atoms: _382  and  _383
REMARK  138  A    between atoms: _382  and  _385
REMARK  139  A    between atoms: _385  and  _386
REMARK  140  A    between atoms: _396  and  _398
REMARK  141  A    between atoms: _398  and  _399
REMARK  142  A    between atoms: _398  and  _401
REMARK  143  A    between atoms: _401  and  _402
REMARK  144  A    between atoms: _407  and  _409
REMARK  145  A    between atoms: _409  and  _410
REMARK  146  A    between atoms: _409  and  _412
REMARK  147  A    between atoms: _412  and  _413
REMARK  148  A    between atoms: _413  and  _414
REMARK  149  A    between atoms: _414  and  _415
REMARK                            x       y       z     vdW  Elec       q    Type
REMARK                         _______ _______ _______ _____ _____    ______ ____
ROOT
ATOM      1  O   HOH     1      -1.893   4.119  11.255  0.00  0.00    +0.000 OA
ENDROOT
TORSDOF 0
