REMARK  Name = ../refined-set-2016/4xu3/4xu3_pocket.pdb
REMARK  231 active torsions:
REMARK  status: ('A' for Active; 'I' for Inactive)
REMARK    1  A    between atoms: _1  and  _3
REMARK    2  A    between atoms: _3  and  _4
REMARK    3  A    between atoms: _3  and  _6
REMARK    4  A    between atoms: _6  and  _7
REMARK    5  A    between atoms: _10  and  _12
REMARK    6  A    between atoms: _12  and  _13
REMARK    7  A    between atoms: _15  and  _17
REMARK    8  A    between atoms: _17  and  _18
REMARK    9  A    between atoms: _17  and  _20
REMARK   10  A    between atoms: _20  and  _21
REMARK   11  A    between atoms: _23  and  _25
REMARK   12  A    between atoms: _25  and  _26
REMARK   13  A    between atoms: _25  and  _28
REMARK   14  A    between atoms: _28  and  _29
REMARK   15  A    between atoms: _32  and  _34
REMARK   16  A    between atoms: _34  and  _35
REMARK   17  A    between atoms: _34  and  _37
REMARK   18  A    between atoms: _37  and  _38
REMARK   19  A    between atoms: _43  and  _45
REMARK   20  A    between atoms: _45  and  _46
REMARK   21  A    between atoms: _49  and  _51
REMARK   22  A    between atoms: _51  and  _52
REMARK   23  A    between atoms: _51  and  _54
REMARK   24  A    between atoms: _54  and  _55
REMARK   25  A    between atoms: _58  and  _60
REMARK   26  A    between atoms: _60  and  _61
REMARK   27  A    between atoms: _60  and  _63
REMARK   28  A    between atoms: _63  and  _64
REMARK   29  A    between atoms: _67  and  _69
REMARK   30  A    between atoms: _69  and  _70
REMARK   31  A    between atoms: _69  and  _72
REMARK   32  A    between atoms: _72  and  _73
REMARK   33  A    between atoms: _76  and  _78
REMARK   34  A    between atoms: _78  and  _79
REMARK   35  A    between atoms: _82  and  _84
REMARK   36  A    between atoms: _84  and  _85
REMARK   37  A    between atoms: _84  and  _87
REMARK   38  A    between atoms: _87  and  _88
REMARK   39  A    between atoms: _88  and  _89
REMARK   40  A    between atoms: _94  and  _96
REMARK   41  A    between atoms: _96  and  _97
REMARK   42  A    between atoms: _96  and  _99
REMARK   43  A    between atoms: _99  and  _100
REMARK   44  A    between atoms: _103  and  _105
REMARK   45  A    between atoms: _105  and  _106
REMARK   46  A    between atoms: _109  and  _111
REMARK   47  A    between atoms: _111  and  _112
REMARK   48  A    between atoms: _114  and  _116
REMARK   49  A    between atoms: _116  and  _117
REMARK   50  A    between atoms: _116  and  _119
REMARK   51  A    between atoms: _119  and  _120
REMARK   52  A    between atoms: _120  and  _121
REMARK   53  A    between atoms: _121  and  _122
REMARK   54  A    between atoms: _131  and  _133
REMARK   55  A    between atoms: _133  and  _134
REMARK   56  A    between atoms: _136  and  _138
REMARK   57  A    between atoms: _138  and  _139
REMARK   58  A    between atoms: _138  and  _141
REMARK   59  A    between atoms: _141  and  _142
REMARK   60  A    between atoms: _142  and  _143
REMARK   61  A    between atoms: _143  and  _144
REMARK   62  A    between atoms: _153  and  _155
REMARK   63  A    between atoms: _155  and  _156
REMARK   64  A    between atoms: _155  and  _158
REMARK   65  A    between atoms: _158  and  _159
REMARK   66  A    between atoms: _164  and  _166
REMARK   67  A    between atoms: _166  and  _167
REMARK   68  A    between atoms: _169  and  _171
REMARK   69  A    between atoms: _171  and  _172
REMARK   70  A    between atoms: _171  and  _174
REMARK   71  A    between atoms: _174  and  _175
REMARK   72  A    between atoms: _175  and  _176
REMARK   73  A    between atoms: _176  and  _177
REMARK   74  A    between atoms: _186  and  _188
REMARK   75  A    between atoms: _188  and  _189
REMARK   76  A    between atoms: _191  and  _193
REMARK   77  A    between atoms: _193  and  _194
REMARK   78  A    between atoms: _193  and  _196
REMARK   79  A    between atoms: _196  and  _197
REMARK   80  A    between atoms: _207  and  _209
REMARK   81  A    between atoms: _209  and  _210
REMARK   82  A    between atoms: _213  and  _215
REMARK   83  A    between atoms: _215  and  _216
REMARK   84  A    between atoms: _219  and  _221
REMARK   85  A    between atoms: _221  and  _222
REMARK   86  A    between atoms: _221  and  _224
REMARK   87  A    between atoms: _224  and  _225
REMARK   88  A    between atoms: _228  and  _230
REMARK   89  A    between atoms: _230  and  _231
REMARK   90  A    between atoms: _230  and  _233
REMARK   91  A    between atoms: _233  and  _234
REMARK   92  A    between atoms: _234  and  _235
REMARK   93  A    between atoms: _240  and  _242
REMARK   94  A    between atoms: _242  and  _243
REMARK   95  A    between atoms: _242  and  _245
REMARK   96  A    between atoms: _245  and  _246
REMARK   97  A    between atoms: _249  and  _251
REMARK   98  A    between atoms: _251  and  _252
REMARK   99  A    between atoms: _251  and  _254
REMARK  100  A    between atoms: _254  and  _255
REMARK  101  A    between atoms: _258  and  _260
REMARK  102  A    between atoms: _260  and  _261
REMARK  103  A    between atoms: _260  and  _263
REMARK  104  A    between atoms: _263  and  _264
REMARK  105  A    between atoms: _267  and  _269
REMARK  106  A    between atoms: _269  and  _270
REMARK  107  A    between atoms: _269  and  _272
REMARK  108  A    between atoms: _272  and  _273
REMARK  109  A    between atoms: _275  and  _277
REMARK  110  A    between atoms: _277  and  _278
REMARK  111  A    between atoms: _277  and  _280
REMARK  112  A    between atoms: _283  and  _285
REMARK  113  A    between atoms: _285  and  _286
REMARK  114  A    between atoms: _285  and  _288
REMARK  115  A    between atoms: _288  and  _289
REMARK  116  A    between atoms: _289  and  _290
REMARK  117  A    between atoms: _290  and  _291
REMARK  118  A    between atoms: _291  and  _292
REMARK  119  A    between atoms: _297  and  _298
REMARK  120  A    between atoms: _303  and  _305
REMARK  121  A    between atoms: _305  and  _306
REMARK  122  A    between atoms: _305  and  _308
REMARK  123  A    between atoms: _308  and  _309
REMARK  124  A    between atoms: _314  and  _316
REMARK  125  A    between atoms: _316  and  _317
REMARK  126  A    between atoms: _316  and  _319
REMARK  127  A    between atoms: _319  and  _320
REMARK  128  A    between atoms: _323  and  _325
REMARK  129  A    between atoms: _325  and  _326
REMARK  130  A    between atoms: _325  and  _328
REMARK  131  A    between atoms: _331  and  _333
REMARK  132  A    between atoms: _333  and  _334
REMARK  133  A    between atoms: _336  and  _338
REMARK  134  A    between atoms: _338  and  _339
REMARK  135  A    between atoms: _338  and  _341
REMARK  136  A    between atoms: _341  and  _342
REMARK  137  A    between atoms: _342  and  _343
REMARK  138  A    between atoms: _343  and  _344
REMARK  139  A    between atoms: _344  and  _345
REMARK  140  A    between atoms: _349  and  _351
REMARK  141  A    between atoms: _351  and  _352
REMARK  142  A    between atoms: _351  and  _354
REMARK  143  A    between atoms: _354  and  _355
REMARK  144  A    between atoms: _358  and  _360
REMARK  145  A    between atoms: _360  and  _361
REMARK  146  A    between atoms: _364  and  _366
REMARK  147  A    between atoms: _366  and  _367
REMARK  148  A    between atoms: _369  and  _371
REMARK  149  A    between atoms: _371  and  _372
REMARK  150  A    between atoms: _371  and  _374
REMARK  151  A    between atoms: _374  and  _375
REMARK  152  A    between atoms: _378  and  _380
REMARK  153  A    between atoms: _380  and  _381
REMARK  154  A    between atoms: _380  and  _383
REMARK  155  A    between atoms: _383  and  _384
REMARK  156  A    between atoms: _387  and  _389
REMARK  157  A    between atoms: _389  and  _390
REMARK  158  A    between atoms: _393  and  _395
REMARK  159  A    between atoms: _395  and  _396
REMARK  160  A    between atoms: _395  and  _398
REMARK  161  A    between atoms: _398  and  _399
REMARK  162  A    between atoms: _399  and  _400
REMARK  163  A    between atoms: _403  and  _405
REMARK  164  A    between atoms: _405  and  _406
REMARK  165  A    between atoms: _405  and  _408
REMARK  166  A    between atoms: _411  and  _413
REMARK  167  A    between atoms: _413  and  _414
REMARK  168  A    between atoms: _413  and  _416
REMARK  169  A    between atoms: _416  and  _417
REMARK  170  A    between atoms: _420  and  _422
REMARK  171  A    between atoms: _422  and  _423
REMARK  172  A    between atoms: _425  and  _427
REMARK  173  A    between atoms: _427  and  _428
REMARK  174  A    between atoms: _427  and  _430
REMARK  175  A    between atoms: _433  and  _435
REMARK  176  A    between atoms: _435  and  _436
REMARK  177  A    between atoms: _438  and  _440
REMARK  178  A    between atoms: _440  and  _441
REMARK  179  A    between atoms: _440  and  _443
REMARK  180  A    between atoms: _443  and  _444
REMARK  181  A    between atoms: _447  and  _449
REMARK  182  A    between atoms: _449  and  _450
REMARK  183  A    between atoms: _449  and  _452
REMARK  184  A    between atoms: _452  and  _453
REMARK  185  A    between atoms: _458  and  _460
REMARK  186  A    between atoms: _460  and  _461
REMARK  187  A    between atoms: _460  and  _463
REMARK  188  A    between atoms: _466  and  _468
REMARK  189  A    between atoms: _468  and  _469
REMARK  190  A    between atoms: _468  and  _471
REMARK  191  A    between atoms: _471  and  _472
REMARK  192  A    between atoms: _472  and  _473
REMARK  193  A    between atoms: _478  and  _480
REMARK  194  A    between atoms: _480  and  _481
REMARK  195  A    between atoms: _485  and  _486
REMARK  196  A    between atoms: _491  and  _493
REMARK  197  A    between atoms: _493  and  _494
REMARK  198  A    between atoms: _493  and  _496
REMARK  199  A    between atoms: _496  and  _497
REMARK  200  A    between atoms: _497  and  _498
REMARK  201  A    between atoms: _501  and  _503
REMARK  202  A    between atoms: _503  and  _504
REMARK  203  A    between atoms: _503  and  _506
REMARK  204  A    between atoms: _509  and  _511
REMARK  205  A    between atoms: _511  and  _512
REMARK  206  A    between atoms: _511  and  _514
REMARK  207  A    between atoms: _514  and  _515
REMARK  208  A    between atoms: _519  and  _520
REMARK  209  A    between atoms: _525  and  _527
REMARK  210  A    between atoms: _527  and  _528
REMARK  211  A    between atoms: _527  and  _530
REMARK  212  A    between atoms: _530  and  _531
REMARK  213  A    between atoms: _534  and  _536
REMARK  214  A    between atoms: _536  and  _537
REMARK  215  A    between atoms: _540  and  _542
REMARK  216  A    between atoms: _542  and  _543
REMARK  217  A    between atoms: _542  and  _545
REMARK  218  A    between atoms: _545  and  _546
REMARK  219  A    between atoms: _549  and  _551
REMARK  220  A    between atoms: _551  and  _552
REMARK  221  A    between atoms: _551  and  _554
REMARK  222  A    between atoms: _554  and  _555
REMARK  223  A    between atoms: _557  and  _559
REMARK  224  A    between atoms: _559  and  _560
REMARK  225  A    between atoms: _562  and  _564
REMARK  226  A    between atoms: _564  and  _565
REMARK  227  A    between atoms: _564  and  _567
REMARK  228  A    between atoms: _567  and  _568
REMARK  229  A    between atoms: _571  and  _573
REMARK  230  A    between atoms: _573  and  _574
REMARK  231  A    between atoms: _573  and  _576
REMARK                            x       y       z     vdW  Elec       q    Type
REMARK                         _______ _______ _______ _____ _____    ______ ____
ROOT
ATOM      1  C   THR A   4       1.558 -13.495  17.586  0.00  0.00    +0.243 C 
ATOM      2  O   THR A   4       1.831 -14.673  17.812  0.00  0.00    -0.273 OA
ATOM      3  N   ASN A   5       1.446 -13.003  16.357  0.00  0.00    -0.297 N 
ATOM      4  H   ASN A   5       1.133 -12.020  16.225  0.00  0.00    +0.150 HD
ENDROOT
BRANCH   3   5
ATOM      5  CA  ASN A   5       1.756 -13.821  15.193  0.00  0.00    +0.158 C 
BRANCH   5   6
ATOM      6  C   ASN A   5       3.226 -14.224  15.185  0.00  0.00    +0.241 C 
ATOM      7  N   ALA A   6       4.105 -13.252  15.411  0.00  0.00    -0.297 N 
ATOM      8  H   ALA A   6       3.759 -12.285  15.574  0.00  0.00    +0.150 HD
ATOM      9  O   ASN A   5       3.552 -15.393  14.992  0.00  0.00    -0.273 OA
BRANCH   7  10
ATOM     10  CA  ALA A   6       5.543 -13.505  15.436  0.00  0.00    +0.149 C 
ATOM     11  CB  ALA A   6       6.305 -12.207  15.665  0.00  0.00    +0.031 C 
BRANCH  10  12
ATOM     12  C   ALA A   6       5.917 -14.531  16.502  0.00  0.00    +0.241 C 
ATOM     13  N   ASP A   7       5.244 -14.465  17.648  0.00  0.00    -0.297 N 
ATOM     14  H   ASP A   7       4.485 -13.761  17.752  0.00  0.00    +0.150 HD
ATOM     15  O   ALA A   6       6.793 -15.369  16.286  0.00  0.00    -0.273 OA
BRANCH  13  16
ATOM     16  CA  ASP A   7       5.546 -15.357  18.762  0.00  0.00    +0.160 C 
BRANCH  16  17
ATOM     17  C   ASP A   7       5.212 -16.811  18.440  0.00  0.00    +0.241 C 
ATOM     18  O   ASP A   7       6.032 -17.702  18.663  0.00  0.00    -0.273 OA
ATOM     19  N   LEU A   8       4.013 -17.052  17.917  0.00  0.00    -0.298 N 
ATOM     20  H   LEU A   8       3.363 -16.260  17.742  0.00  0.00    +0.150 HD
BRANCH  19  21
ATOM     21  CA  LEU A   8       3.595 -18.412  17.585  0.00  0.00    +0.137 C 
BRANCH  21  22
ATOM     22  C   LEU A   8       4.419 -18.980  16.434  0.00  0.00    +0.227 C 
ATOM     23  O   LEU A   8       4.634 -20.191  16.354  0.00  0.00    -0.286 OA
ENDBRANCH  21  22
BRANCH  21  24
ATOM     24  CB  LEU A   8       2.106 -18.456  17.237  0.00  0.00    +0.028 C 
BRANCH  24  25
ATOM     25  CG  LEU A   8       1.128 -18.312  18.406  0.00  0.00    +0.002 C 
ATOM     26  CD2 LEU A   8       1.562 -19.169  19.584  0.00  0.00    +0.000 C 
ATOM     27  CD1 LEU A   8      -0.287 -18.672  17.971  0.00  0.00    +0.000 C 
ENDBRANCH  24  25
ENDBRANCH  21  24
ENDBRANCH  19  21
ENDBRANCH  16  17
BRANCH  16  28
ATOM     28  CB  ASP A   7       4.796 -14.916  20.020  0.00  0.00    +0.143 C 
BRANCH  28  29
ATOM     29  CG  ASP A   7       5.221 -13.544  20.502  0.00  0.00    +0.367 C 
ATOM     30  OD2 ASP A   7       4.514 -12.968  21.356  0.00  0.00    -0.246 OA
ATOM     31  OD1 ASP A   7       6.267 -13.045  20.037  0.00  0.00    -0.246 OA
ENDBRANCH  28  29
ENDBRANCH  16  28
ENDBRANCH  13  16
ENDBRANCH  10  12
ENDBRANCH   7  10
ENDBRANCH   5   6
BRANCH   5  32
ATOM     32  CB  ASN A   5       1.406 -13.084  13.901  0.00  0.00    +0.114 C 
BRANCH  32  33
ATOM     33  CG  ASN A   5       0.088 -13.540  13.312  0.00  0.00    +0.222 C 
ATOM     34  OD1 ASN A   5      -0.829 -13.921  14.038  0.00  0.00    -0.275 OA
ATOM     35  ND2 ASN A   5      -0.010 -13.515  11.989  0.00  0.00    -0.329 N 
ATOM     36 HD21 ASN A   5      -0.888 -13.826  11.527  0.00  0.00    +0.145 HD
ATOM     37 HD22 ASN A   5       0.791 -13.185  11.414  0.00  0.00    +0.145 HD
ENDBRANCH  32  33
ENDBRANCH   5  32
ENDBRANCH   3   5
BRANCH   1  38
ATOM     38  CA  THR A   4       1.325 -12.518  18.730  0.00  0.00    +0.176 C 
BRANCH  38  40
ATOM     39  C   SER A   3       3.084 -10.938  18.142  0.00  0.00    +0.243 C 
ATOM     40  N   THR A   4       1.795 -11.180  18.375  0.00  0.00    -0.295 N 
ATOM     41  H   THR A   4       1.109 -10.401  18.303  0.00  0.00    +0.150 HD
ATOM     42  O   SER A   3       3.949 -11.814  18.187  0.00  0.00    -0.273 OA
BRANCH  39  43
ATOM     43  CA  SER A   3       3.462  -9.500  17.808  0.00  0.00    +0.178 C 
BRANCH  43  45
ATOM     44  C   GLY A   2       4.624  -7.705  18.983  0.00  0.00    +0.243 C 
ATOM     45  N   SER A   3       4.453  -9.003  18.756  0.00  0.00    -0.295 N 
ATOM     46  H   SER A   3       5.045  -9.686  19.271  0.00  0.00    +0.150 HD
ATOM     47  O   GLY A   2       3.972  -6.834  18.411  0.00  0.00    -0.273 OA
BRANCH  44  48
ATOM     48  CA  GLY A   2       5.681  -7.341  20.008  0.00  0.00    +0.176 C 
BRANCH  48  51
ATOM     49  C   THR A   1       4.457  -7.701  22.069  0.00  0.00    +0.241 C 
ATOM     50  O   THR A   1       3.707  -6.751  21.847  0.00  0.00    -0.274 OA
ATOM     51  N   GLY A   2       5.455  -8.038  21.260  0.00  0.00    -0.295 N 
ATOM     52  H   GLY A   2       6.088  -8.818  21.530  0.00  0.00    +0.150 HD
BRANCH  49  53
ATOM     53  CA  THR A   1       4.277  -8.559  23.315  0.00  0.00    +0.172 C 
BRANCH  53  54
ATOM     54  N   THR A   1       3.304  -7.948  24.213  0.00  0.00    -0.236 NA
ATOM     55  H   THR A   1       2.586  -7.308  23.818  0.00  0.00    +0.142 HD
ENDBRANCH  53  54
BRANCH  53  56
ATOM     56  CB  THR A   1       3.861  -9.978  22.892  0.00  0.00    +0.135 C 
ATOM     57  CG2 THR A   1       2.586  -9.934  22.063  0.00  0.00    +0.034 C 
BRANCH  56  58
ATOM     58  OG1 THR A   1       4.909 -10.573  22.117  0.00  0.00    -0.383 OA
ATOM     59  HG1 THR A   1       4.639 -11.486  21.846  0.00  0.00    +0.210 HD
ENDBRANCH  56  58
ENDBRANCH  53  56
ENDBRANCH  49  53
ENDBRANCH  48  51
ENDBRANCH  44  48
ENDBRANCH  43  45
BRANCH  43  60
ATOM     60  CB  SER A   3       3.996  -9.408  16.377  0.00  0.00    +0.166 C 
BRANCH  60  61
ATOM     61  OG  SER A   3       3.107 -10.011  15.455  0.00  0.00    -0.380 OA
ATOM     62  H   SER A   3       2.231  -9.552  15.494  0.00  0.00    +0.211 HD
ENDBRANCH  60  61
ENDBRANCH  43  60
ENDBRANCH  39  43
ENDBRANCH  38  40
BRANCH  38  63
ATOM     63  CB  THR A   4      -0.172 -12.531  19.103  0.00  0.00    +0.137 C 
ATOM     64  CG2 THR A   4      -0.444 -11.594  20.267  0.00  0.00    +0.034 C 
BRANCH  63  65
ATOM     65  OG1 THR A   4      -0.957 -12.127  17.976  0.00  0.00    -0.382 OA
ATOM     66  HG1 THR A   4      -0.801 -12.753  17.225  0.00  0.00    +0.210 HD
ENDBRANCH  63  65
ENDBRANCH  38  63
ENDBRANCH   1  38
TORSDOF 28
REMARK  Name = ../refined-set-2016/4xu3/4xu3_pocket.pdb
REMARK  231 active torsions:
REMARK  status: ('A' for Active; 'I' for Inactive)
REMARK    1  A    between atoms: _1  and  _3
REMARK    2  A    between atoms: _3  and  _4
REMARK    3  A    between atoms: _3  and  _6
REMARK    4  A    between atoms: _6  and  _7
REMARK    5  A    between atoms: _10  and  _12
REMARK    6  A    between atoms: _12  and  _13
REMARK    7  A    between atoms: _15  and  _17
REMARK    8  A    between atoms: _17  and  _18
REMARK    9  A    between atoms: _17  and  _20
REMARK   10  A    between atoms: _20  and  _21
REMARK   11  A    between atoms: _23  and  _25
REMARK   12  A    between atoms: _25  and  _26
REMARK   13  A    between atoms: _25  and  _28
REMARK   14  A    between atoms: _28  and  _29
REMARK   15  A    between atoms: _32  and  _34
REMARK   16  A    between atoms: _34  and  _35
REMARK   17  A    between atoms: _34  and  _37
REMARK   18  A    between atoms: _37  and  _38
REMARK   19  A    between atoms: _43  and  _45
REMARK   20  A    between atoms: _45  and  _46
REMARK   21  A    between atoms: _49  and  _51
REMARK   22  A    between atoms: _51  and  _52
REMARK   23  A    between atoms: _51  and  _54
REMARK   24  A    between atoms: _54  and  _55
REMARK   25  A    between atoms: _58  and  _60
REMARK   26  A    between atoms: _60  and  _61
REMARK   27  A    between atoms: _60  and  _63
REMARK   28  A    between atoms: _63  and  _64
REMARK   29  A    between atoms: _67  and  _69
REMARK   30  A    between atoms: _69  and  _70
REMARK   31  A    between atoms: _69  and  _72
REMARK   32  A    between atoms: _72  and  _73
REMARK   33  A    between atoms: _76  and  _78
REMARK   34  A    between atoms: _78  and  _79
REMARK   35  A    between atoms: _82  and  _84
REMARK   36  A    between atoms: _84  and  _85
REMARK   37  A    between atoms: _84  and  _87
REMARK   38  A    between atoms: _87  and  _88
REMARK   39  A    between atoms: _88  and  _89
REMARK   40  A    between atoms: _94  and  _96
REMARK   41  A    between atoms: _96  and  _97
REMARK   42  A    between atoms: _96  and  _99
REMARK   43  A    between atoms: _99  and  _100
REMARK   44  A    between atoms: _103  and  _105
REMARK   45  A    between atoms: _105  and  _106
REMARK   46  A    between atoms: _109  and  _111
REMARK   47  A    between atoms: _111  and  _112
REMARK   48  A    between atoms: _114  and  _116
REMARK   49  A    between atoms: _116  and  _117
REMARK   50  A    between atoms: _116  and  _119
REMARK   51  A    between atoms: _119  and  _120
REMARK   52  A    between atoms: _120  and  _121
REMARK   53  A    between atoms: _121  and  _122
REMARK   54  A    between atoms: _131  and  _133
REMARK   55  A    between atoms: _133  and  _134
REMARK   56  A    between atoms: _136  and  _138
REMARK   57  A    between atoms: _138  and  _139
REMARK   58  A    between atoms: _138  and  _141
REMARK   59  A    between atoms: _141  and  _142
REMARK   60  A    between atoms: _142  and  _143
REMARK   61  A    between atoms: _143  and  _144
REMARK   62  A    between atoms: _153  and  _155
REMARK   63  A    between atoms: _155  and  _156
REMARK   64  A    between atoms: _155  and  _158
REMARK   65  A    between atoms: _158  and  _159
REMARK   66  A    between atoms: _164  and  _166
REMARK   67  A    between atoms: _166  and  _167
REMARK   68  A    between atoms: _169  and  _171
REMARK   69  A    between atoms: _171  and  _172
REMARK   70  A    between atoms: _171  and  _174
REMARK   71  A    between atoms: _174  and  _175
REMARK   72  A    between atoms: _175  and  _176
REMARK   73  A    between atoms: _176  and  _177
REMARK   74  A    between atoms: _186  and  _188
REMARK   75  A    between atoms: _188  and  _189
REMARK   76  A    between atoms: _191  and  _193
REMARK   77  A    between atoms: _193  and  _194
REMARK   78  A    between atoms: _193  and  _196
REMARK   79  A    between atoms: _196  and  _197
REMARK   80  A    between atoms: _207  and  _209
REMARK   81  A    between atoms: _209  and  _210
REMARK   82  A    between atoms: _213  and  _215
REMARK   83  A    between atoms: _215  and  _216
REMARK   84  A    between atoms: _219  and  _221
REMARK   85  A    between atoms: _221  and  _222
REMARK   86  A    between atoms: _221  and  _224
REMARK   87  A    between atoms: _224  and  _225
REMARK   88  A    between atoms: _228  and  _230
REMARK   89  A    between atoms: _230  and  _231
REMARK   90  A    between atoms: _230  and  _233
REMARK   91  A    between atoms: _233  and  _234
REMARK   92  A    between atoms: _234  and  _235
REMARK   93  A    between atoms: _240  and  _242
REMARK   94  A    between atoms: _242  and  _243
REMARK   95  A    between atoms: _242  and  _245
REMARK   96  A    between atoms: _245  and  _246
REMARK   97  A    between atoms: _249  and  _251
REMARK   98  A    between atoms: _251  and  _252
REMARK   99  A    between atoms: _251  and  _254
REMARK  100  A    between atoms: _254  and  _255
REMARK  101  A    between atoms: _258  and  _260
REMARK  102  A    between atoms: _260  and  _261
REMARK  103  A    between atoms: _260  and  _263
REMARK  104  A    between atoms: _263  and  _264
REMARK  105  A    between atoms: _267  and  _269
REMARK  106  A    between atoms: _269  and  _270
REMARK  107  A    between atoms: _269  and  _272
REMARK  108  A    between atoms: _272  and  _273
REMARK  109  A    between atoms: _275  and  _277
REMARK  110  A    between atoms: _277  and  _278
REMARK  111  A    between atoms: _277  and  _280
REMARK  112  A    between atoms: _283  and  _285
REMARK  113  A    between atoms: _285  and  _286
REMARK  114  A    between atoms: _285  and  _288
REMARK  115  A    between atoms: _288  and  _289
REMARK  116  A    between atoms: _289  and  _290
REMARK  117  A    between atoms: _290  and  _291
REMARK  118  A    between atoms: _291  and  _292
REMARK  119  A    between atoms: _297  and  _298
REMARK  120  A    between atoms: _303  and  _305
REMARK  121  A    between atoms: _305  and  _306
REMARK  122  A    between atoms: _305  and  _308
REMARK  123  A    between atoms: _308  and  _309
REMARK  124  A    between atoms: _314  and  _316
REMARK  125  A    between atoms: _316  and  _317
REMARK  126  A    between atoms: _316  and  _319
REMARK  127  A    between atoms: _319  and  _320
REMARK  128  A    between atoms: _323  and  _325
REMARK  129  A    between atoms: _325  and  _326
REMARK  130  A    between atoms: _325  and  _328
REMARK  131  A    between atoms: _331  and  _333
REMARK  132  A    between atoms: _333  and  _334
REMARK  133  A    between atoms: _336  and  _338
REMARK  134  A    between atoms: _338  and  _339
REMARK  135  A    between atoms: _338  and  _341
REMARK  136  A    between atoms: _341  and  _342
REMARK  137  A    between atoms: _342  and  _343
REMARK  138  A    between atoms: _343  and  _344
REMARK  139  A    between atoms: _344  and  _345
REMARK  140  A    between atoms: _349  and  _351
REMARK  141  A    between atoms: _351  and  _352
REMARK  142  A    between atoms: _351  and  _354
REMARK  143  A    between atoms: _354  and  _355
REMARK  144  A    between atoms: _358  and  _360
REMARK  145  A    between atoms: _360  and  _361
REMARK  146  A    between atoms: _364  and  _366
REMARK  147  A    between atoms: _366  and  _367
REMARK  148  A    between atoms: _369  and  _371
REMARK  149  A    between atoms: _371  and  _372
REMARK  150  A    between atoms: _371  and  _374
REMARK  151  A    between atoms: _374  and  _375
REMARK  152  A    between atoms: _378  and  _380
REMARK  153  A    between atoms: _380  and  _381
REMARK  154  A    between atoms: _380  and  _383
REMARK  155  A    between atoms: _383  and  _384
REMARK  156  A    between atoms: _387  and  _389
REMARK  157  A    between atoms: _389  and  _390
REMARK  158  A    between atoms: _393  and  _395
REMARK  159  A    between atoms: _395  and  _396
REMARK  160  A    between atoms: _395  and  _398
REMARK  161  A    between atoms: _398  and  _399
REMARK  162  A    between atoms: _399  and  _400
REMARK  163  A    between atoms: _403  and  _405
REMARK  164  A    between atoms: _405  and  _406
REMARK  165  A    between atoms: _405  and  _408
REMARK  166  A    between atoms: _411  and  _413
REMARK  167  A    between atoms: _413  and  _414
REMARK  168  A    between atoms: _413  and  _416
REMARK  169  A    between atoms: _416  and  _417
REMARK  170  A    between atoms: _420  and  _422
REMARK  171  A    between atoms: _422  and  _423
REMARK  172  A    between atoms: _425  and  _427
REMARK  173  A    between atoms: _427  and  _428
REMARK  174  A    between atoms: _427  and  _430
REMARK  175  A    between atoms: _433  and  _435
REMARK  176  A    between atoms: _435  and  _436
REMARK  177  A    between atoms: _438  and  _440
REMARK  178  A    between atoms: _440  and  _441
REMARK  179  A    between atoms: _440  and  _443
REMARK  180  A    between atoms: _443  and  _444
REMARK  181  A    between atoms: _447  and  _449
REMARK  182  A    between atoms: _449  and  _450
REMARK  183  A    between atoms: _449  and  _452
REMARK  184  A    between atoms: _452  and  _453
REMARK  185  A    between atoms: _458  and  _460
REMARK  186  A    between atoms: _460  and  _461
REMARK  187  A    between atoms: _460  and  _463
REMARK  188  A    between atoms: _466  and  _468
REMARK  189  A    between atoms: _468  and  _469
REMARK  190  A    between atoms: _468  and  _471
REMARK  191  A    between atoms: _471  and  _472
REMARK  192  A    between atoms: _472  and  _473
REMARK  193  A    between atoms: _478  and  _480
REMARK  194  A    between atoms: _480  and  _481
REMARK  195  A    between atoms: _485  and  _486
REMARK  196  A    between atoms: _491  and  _493
REMARK  197  A    between atoms: _493  and  _494
REMARK  198  A    between atoms: _493  and  _496
REMARK  199  A    between atoms: _496  and  _497
REMARK  200  A    between atoms: _497  and  _498
REMARK  201  A    between atoms: _501  and  _503
REMARK  202  A    between atoms: _503  and  _504
REMARK  203  A    between atoms: _503  and  _506
REMARK  204  A    between atoms: _509  and  _511
REMARK  205  A    between atoms: _511  and  _512
REMARK  206  A    between atoms: _511  and  _514
REMARK  207  A    between atoms: _514  and  _515
REMARK  208  A    between atoms: _519  and  _520
REMARK  209  A    between atoms: _525  and  _527
REMARK  210  A    between atoms: _527  and  _528
REMARK  211  A    between atoms: _527  and  _530
REMARK  212  A    between atoms: _530  and  _531
REMARK  213  A    between atoms: _534  and  _536
REMARK  214  A    between atoms: _536  and  _537
REMARK  215  A    between atoms: _540  and  _542
REMARK  216  A    between atoms: _542  and  _543
REMARK  217  A    between atoms: _542  and  _545
REMARK  218  A    between atoms: _545  and  _546
REMARK  219  A    between atoms: _549  and  _551
REMARK  220  A    between atoms: _551  and  _552
REMARK  221  A    between atoms: _551  and  _554
REMARK  222  A    between atoms: _554  and  _555
REMARK  223  A    between atoms: _557  and  _559
REMARK  224  A    between atoms: _559  and  _560
REMARK  225  A    between atoms: _562  and  _564
REMARK  226  A    between atoms: _564  and  _565
REMARK  227  A    between atoms: _564  and  _567
REMARK  228  A    between atoms: _567  and  _568
REMARK  229  A    between atoms: _571  and  _573
REMARK  230  A    between atoms: _573  and  _574
REMARK  231  A    between atoms: _573  and  _576
REMARK                            x       y       z     vdW  Elec       q    Type
REMARK                         _______ _______ _______ _____ _____    ______ ____
ROOT
ATOM      1  CA  LEU A   1      -2.079 -16.707  22.408  0.00  0.00    +0.133 C 
ENDROOT
BRANCH   1   2
ATOM      2  N   LEU A   1      -2.857 -17.729  21.718  0.00  0.00    -0.239 NA
ATOM      3  H   LEU A   1      -3.099 -17.593  20.716  0.00  0.00    +0.142 HD
ENDBRANCH   1   2
BRANCH   1   4
ATOM      4  C   LEU A   1      -2.778 -15.357  22.320  0.00  0.00    +0.224 C 
ATOM      5  O   LEU A   1      -2.967 -14.822  21.232  0.00  0.00    -0.287 OA
ENDBRANCH   1   4
BRANCH   1   6
ATOM      6  CB  LEU A   1      -0.668 -16.607  21.825  0.00  0.00    +0.025 C 
BRANCH   6   7
ATOM      7  CG  LEU A   1       0.224 -15.523  22.435  0.00  0.00    +0.002 C 
ATOM      8  CD2 LEU A   1       0.508 -15.819  23.899  0.00  0.00    +0.000 C 
ATOM      9  CD1 LEU A   1       1.522 -15.381  21.654  0.00  0.00    +0.000 C 
ENDBRANCH   6   7
ENDBRANCH   1   6
TORSDOF 4
REMARK  Name = ../refined-set-2016/4xu3/4xu3_pocket.pdb
REMARK  231 active torsions:
REMARK  status: ('A' for Active; 'I' for Inactive)
REMARK    1  A    between atoms: _1  and  _3
REMARK    2  A    between atoms: _3  and  _4
REMARK    3  A    between atoms: _3  and  _6
REMARK    4  A    between atoms: _6  and  _7
REMARK    5  A    between atoms: _10  and  _12
REMARK    6  A    between atoms: _12  and  _13
REMARK    7  A    between atoms: _15  and  _17
REMARK    8  A    between atoms: _17  and  _18
REMARK    9  A    between atoms: _17  and  _20
REMARK   10  A    between atoms: _20  and  _21
REMARK   11  A    between atoms: _23  and  _25
REMARK   12  A    between atoms: _25  and  _26
REMARK   13  A    between atoms: _25  and  _28
REMARK   14  A    between atoms: _28  and  _29
REMARK   15  A    between atoms: _32  and  _34
REMARK   16  A    between atoms: _34  and  _35
REMARK   17  A    between atoms: _34  and  _37
REMARK   18  A    between atoms: _37  and  _38
REMARK   19  A    between atoms: _43  and  _45
REMARK   20  A    between atoms: _45  and  _46
REMARK   21  A    between atoms: _49  and  _51
REMARK   22  A    between atoms: _51  and  _52
REMARK   23  A    between atoms: _51  and  _54
REMARK   24  A    between atoms: _54  and  _55
REMARK   25  A    between atoms: _58  and  _60
REMARK   26  A    between atoms: _60  and  _61
REMARK   27  A    between atoms: _60  and  _63
REMARK   28  A    between atoms: _63  and  _64
REMARK   29  A    between atoms: _67  and  _69
REMARK   30  A    between atoms: _69  and  _70
REMARK   31  A    between atoms: _69  and  _72
REMARK   32  A    between atoms: _72  and  _73
REMARK   33  A    between atoms: _76  and  _78
REMARK   34  A    between atoms: _78  and  _79
REMARK   35  A    between atoms: _82  and  _84
REMARK   36  A    between atoms: _84  and  _85
REMARK   37  A    between atoms: _84  and  _87
REMARK   38  A    between atoms: _87  and  _88
REMARK   39  A    between atoms: _88  and  _89
REMARK   40  A    between atoms: _94  and  _96
REMARK   41  A    between atoms: _96  and  _97
REMARK   42  A    between atoms: _96  and  _99
REMARK   43  A    between atoms: _99  and  _100
REMARK   44  A    between atoms: _103  and  _105
REMARK   45  A    between atoms: _105  and  _106
REMARK   46  A    between atoms: _109  and  _111
REMARK   47  A    between atoms: _111  and  _112
REMARK   48  A    between atoms: _114  and  _116
REMARK   49  A    between atoms: _116  and  _117
REMARK   50  A    between atoms: _116  and  _119
REMARK   51  A    between atoms: _119  and  _120
REMARK   52  A    between atoms: _120  and  _121
REMARK   53  A    between atoms: _121  and  _122
REMARK   54  A    between atoms: _131  and  _133
REMARK   55  A    between atoms: _133  and  _134
REMARK   56  A    between atoms: _136  and  _138
REMARK   57  A    between atoms: _138  and  _139
REMARK   58  A    between atoms: _138  and  _141
REMARK   59  A    between atoms: _141  and  _142
REMARK   60  A    between atoms: _142  and  _143
REMARK   61  A    between atoms: _143  and  _144
REMARK   62  A    between atoms: _153  and  _155
REMARK   63  A    between atoms: _155  and  _156
REMARK   64  A    between atoms: _155  and  _158
REMARK   65  A    between atoms: _158  and  _159
REMARK   66  A    between atoms: _164  and  _166
REMARK   67  A    between atoms: _166  and  _167
REMARK   68  A    between atoms: _169  and  _171
REMARK   69  A    between atoms: _171  and  _172
REMARK   70  A    between atoms: _171  and  _174
REMARK   71  A    between atoms: _174  and  _175
REMARK   72  A    between atoms: _175  and  _176
REMARK   73  A    between atoms: _176  and  _177
REMARK   74  A    between atoms: _186  and  _188
REMARK   75  A    between atoms: _188  and  _189
REMARK   76  A    between atoms: _191  and  _193
REMARK   77  A    between atoms: _193  and  _194
REMARK   78  A    between atoms: _193  and  _196
REMARK   79  A    between atoms: _196  and  _197
REMARK   80  A    between atoms: _207  and  _209
REMARK   81  A    between atoms: _209  and  _210
REMARK   82  A    between atoms: _213  and  _215
REMARK   83  A    between atoms: _215  and  _216
REMARK   84  A    between atoms: _219  and  _221
REMARK   85  A    between atoms: _221  and  _222
REMARK   86  A    between atoms: _221  and  _224
REMARK   87  A    between atoms: _224  and  _225
REMARK   88  A    between atoms: _228  and  _230
REMARK   89  A    between atoms: _230  and  _231
REMARK   90  A    between atoms: _230  and  _233
REMARK   91  A    between atoms: _233  and  _234
REMARK   92  A    between atoms: _234  and  _235
REMARK   93  A    between atoms: _240  and  _242
REMARK   94  A    between atoms: _242  and  _243
REMARK   95  A    between atoms: _242  and  _245
REMARK   96  A    between atoms: _245  and  _246
REMARK   97  A    between atoms: _249  and  _251
REMARK   98  A    between atoms: _251  and  _252
REMARK   99  A    between atoms: _251  and  _254
REMARK  100  A    between atoms: _254  and  _255
REMARK  101  A    between atoms: _258  and  _260
REMARK  102  A    between atoms: _260  and  _261
REMARK  103  A    between atoms: _260  and  _263
REMARK  104  A    between atoms: _263  and  _264
REMARK  105  A    between atoms: _267  and  _269
REMARK  106  A    between atoms: _269  and  _270
REMARK  107  A    between atoms: _269  and  _272
REMARK  108  A    between atoms: _272  and  _273
REMARK  109  A    between atoms: _275  and  _277
REMARK  110  A    between atoms: _277  and  _278
REMARK  111  A    between atoms: _277  and  _280
REMARK  112  A    between atoms: _283  and  _285
REMARK  113  A    between atoms: _285  and  _286
REMARK  114  A    between atoms: _285  and  _288
REMARK  115  A    between atoms: _288  and  _289
REMARK  116  A    between atoms: _289  and  _290
REMARK  117  A    between atoms: _290  and  _291
REMARK  118  A    between atoms: _291  and  _292
REMARK  119  A    between atoms: _297  and  _298
REMARK  120  A    between atoms: _303  and  _305
REMARK  121  A    between atoms: _305  and  _306
REMARK  122  A    between atoms: _305  and  _308
REMARK  123  A    between atoms: _308  and  _309
REMARK  124  A    between atoms: _314  and  _316
REMARK  125  A    between atoms: _316  and  _317
REMARK  126  A    between atoms: _316  and  _319
REMARK  127  A    between atoms: _319  and  _320
REMARK  128  A    between atoms: _323  and  _325
REMARK  129  A    between atoms: _325  and  _326
REMARK  130  A    between atoms: _325  and  _328
REMARK  131  A    between atoms: _331  and  _333
REMARK  132  A    between atoms: _333  and  _334
REMARK  133  A    between atoms: _336  and  _338
REMARK  134  A    between atoms: _338  and  _339
REMARK  135  A    between atoms: _338  and  _341
REMARK  136  A    between atoms: _341  and  _342
REMARK  137  A    between atoms: _342  and  _343
REMARK  138  A    between atoms: _343  and  _344
REMARK  139  A    between atoms: _344  and  _345
REMARK  140  A    between atoms: _349  and  _351
REMARK  141  A    between atoms: _351  and  _352
REMARK  142  A    between atoms: _351  and  _354
REMARK  143  A    between atoms: _354  and  _355
REMARK  144  A    between atoms: _358  and  _360
REMARK  145  A    between atoms: _360  and  _361
REMARK  146  A    between atoms: _364  and  _366
REMARK  147  A    between atoms: _366  and  _367
REMARK  148  A    between atoms: _369  and  _371
REMARK  149  A    between atoms: _371  and  _372
REMARK  150  A    between atoms: _371  and  _374
REMARK  151  A    between atoms: _374  and  _375
REMARK  152  A    between atoms: _378  and  _380
REMARK  153  A    between atoms: _380  and  _381
REMARK  154  A    between atoms: _380  and  _383
REMARK  155  A    between atoms: _383  and  _384
REMARK  156  A    between atoms: _387  and  _389
REMARK  157  A    between atoms: _389  and  _390
REMARK  158  A    between atoms: _393  and  _395
REMARK  159  A    between atoms: _395  and  _396
REMARK  160  A    between atoms: _395  and  _398
REMARK  161  A    between atoms: _398  and  _399
REMARK  162  A    between atoms: _399  and  _400
REMARK  163  A    between atoms: _403  and  _405
REMARK  164  A    between atoms: _405  and  _406
REMARK  165  A    between atoms: _405  and  _408
REMARK  166  A    between atoms: _411  and  _413
REMARK  167  A    between atoms: _413  and  _414
REMARK  168  A    between atoms: _413  and  _416
REMARK  169  A    between atoms: _416  and  _417
REMARK  170  A    between atoms: _420  and  _422
REMARK  171  A    between atoms: _422  and  _423
REMARK  172  A    between atoms: _425  and  _427
REMARK  173  A    between atoms: _427  and  _428
REMARK  174  A    between atoms: _427  and  _430
REMARK  175  A    between atoms: _433  and  _435
REMARK  176  A    between atoms: _435  and  _436
REMARK  177  A    between atoms: _438  and  _440
REMARK  178  A    between atoms: _440  and  _441
REMARK  179  A    between atoms: _440  and  _443
REMARK  180  A    between atoms: _443  and  _444
REMARK  181  A    between atoms: _447  and  _449
REMARK  182  A    between atoms: _449  and  _450
REMARK  183  A    between atoms: _449  and  _452
REMARK  184  A    between atoms: _452  and  _453
REMARK  185  A    between atoms: _458  and  _460
REMARK  186  A    between atoms: _460  and  _461
REMARK  187  A    between atoms: _460  and  _463
REMARK  188  A    between atoms: _466  and  _468
REMARK  189  A    between atoms: _468  and  _469
REMARK  190  A    between atoms: _468  and  _471
REMARK  191  A    between atoms: _471  and  _472
REMARK  192  A    between atoms: _472  and  _473
REMARK  193  A    between atoms: _478  and  _480
REMARK  194  A    between atoms: _480  and  _481
REMARK  195  A    between atoms: _485  and  _486
REMARK  196  A    between atoms: _491  and  _493
REMARK  197  A    between atoms: _493  and  _494
REMARK  198  A    between atoms: _493  and  _496
REMARK  199  A    between atoms: _496  and  _497
REMARK  200  A    between atoms: _497  and  _498
REMARK  201  A    between atoms: _501  and  _503
REMARK  202  A    between atoms: _503  and  _504
REMARK  203  A    between atoms: _503  and  _506
REMARK  204  A    between atoms: _509  and  _511
REMARK  205  A    between atoms: _511  and  _512
REMARK  206  A    between atoms: _511  and  _514
REMARK  207  A    between atoms: _514  and  _515
REMARK  208  A    between atoms: _519  and  _520
REMARK  209  A    between atoms: _525  and  _527
REMARK  210  A    between atoms: _527  and  _528
REMARK  211  A    between atoms: _527  and  _530
REMARK  212  A    between atoms: _530  and  _531
REMARK  213  A    between atoms: _534  and  _536
REMARK  214  A    between atoms: _536  and  _537
REMARK  215  A    between atoms: _540  and  _542
REMARK  216  A    between atoms: _542  and  _543
REMARK  217  A    between atoms: _542  and  _545
REMARK  218  A    between atoms: _545  and  _546
REMARK  219  A    between atoms: _549  and  _551
REMARK  220  A    between atoms: _551  and  _552
REMARK  221  A    between atoms: _551  and  _554
REMARK  222  A    between atoms: _554  and  _555
REMARK  223  A    between atoms: _557  and  _559
REMARK  224  A    between atoms: _559  and  _560
REMARK  225  A    between atoms: _562  and  _564
REMARK  226  A    between atoms: _564  and  _565
REMARK  227  A    between atoms: _564  and  _567
REMARK  228  A    between atoms: _567  and  _568
REMARK  229  A    between atoms: _571  and  _573
REMARK  230  A    between atoms: _573  and  _574
REMARK  231  A    between atoms: _573  and  _576
REMARK                            x       y       z     vdW  Elec       q    Type
REMARK                         _______ _______ _______ _____ _____    ______ ____
ROOT
ATOM      1  CA  ALA A   1      -2.128 -10.199  24.230  0.00  0.00    +0.133 C 
ATOM      2  CB  ALA A   1      -0.998  -9.774  23.307  0.00  0.00    +0.027 C 
ENDROOT
BRANCH   1   3
ATOM      3  N   ALA A   1      -2.893 -11.289  23.633  0.00  0.00    -0.239 NA
ATOM      4  H   ALA A   1      -3.377 -11.134  22.726  0.00  0.00    +0.142 HD
ENDBRANCH   1   3
BRANCH   1   5
ATOM      5  C   ALA A   1      -3.018  -9.005  24.554  0.00  0.00    +0.224 C 
ATOM      6  O   ALA A   1      -3.812  -8.564  23.723  0.00  0.00    -0.287 OA
ENDBRANCH   1   5
TORSDOF 2
REMARK  Name = ../refined-set-2016/4xu3/4xu3_pocket.pdb
REMARK  231 active torsions:
REMARK  status: ('A' for Active; 'I' for Inactive)
REMARK    1  A    between atoms: _1  and  _3
REMARK    2  A    between atoms: _3  and  _4
REMARK    3  A    between atoms: _3  and  _6
REMARK    4  A    between atoms: _6  and  _7
REMARK    5  A    between atoms: _10  and  _12
REMARK    6  A    between atoms: _12  and  _13
REMARK    7  A    between atoms: _15  and  _17
REMARK    8  A    between atoms: _17  and  _18
REMARK    9  A    between atoms: _17  and  _20
REMARK   10  A    between atoms: _20  and  _21
REMARK   11  A    between atoms: _23  and  _25
REMARK   12  A    between atoms: _25  and  _26
REMARK   13  A    between atoms: _25  and  _28
REMARK   14  A    between atoms: _28  and  _29
REMARK   15  A    between atoms: _32  and  _34
REMARK   16  A    between atoms: _34  and  _35
REMARK   17  A    between atoms: _34  and  _37
REMARK   18  A    between atoms: _37  and  _38
REMARK   19  A    between atoms: _43  and  _45
REMARK   20  A    between atoms: _45  and  _46
REMARK   21  A    between atoms: _49  and  _51
REMARK   22  A    between atoms: _51  and  _52
REMARK   23  A    between atoms: _51  and  _54
REMARK   24  A    between atoms: _54  and  _55
REMARK   25  A    between atoms: _58  and  _60
REMARK   26  A    between atoms: _60  and  _61
REMARK   27  A    between atoms: _60  and  _63
REMARK   28  A    between atoms: _63  and  _64
REMARK   29  A    between atoms: _67  and  _69
REMARK   30  A    between atoms: _69  and  _70
REMARK   31  A    between atoms: _69  and  _72
REMARK   32  A    between atoms: _72  and  _73
REMARK   33  A    between atoms: _76  and  _78
REMARK   34  A    between atoms: _78  and  _79
REMARK   35  A    between atoms: _82  and  _84
REMARK   36  A    between atoms: _84  and  _85
REMARK   37  A    between atoms: _84  and  _87
REMARK   38  A    between atoms: _87  and  _88
REMARK   39  A    between atoms: _88  and  _89
REMARK   40  A    between atoms: _94  and  _96
REMARK   41  A    between atoms: _96  and  _97
REMARK   42  A    between atoms: _96  and  _99
REMARK   43  A    between atoms: _99  and  _100
REMARK   44  A    between atoms: _103  and  _105
REMARK   45  A    between atoms: _105  and  _106
REMARK   46  A    between atoms: _109  and  _111
REMARK   47  A    between atoms: _111  and  _112
REMARK   48  A    between atoms: _114  and  _116
REMARK   49  A    between atoms: _116  and  _117
REMARK   50  A    between atoms: _116  and  _119
REMARK   51  A    between atoms: _119  and  _120
REMARK   52  A    between atoms: _120  and  _121
REMARK   53  A    between atoms: _121  and  _122
REMARK   54  A    between atoms: _131  and  _133
REMARK   55  A    between atoms: _133  and  _134
REMARK   56  A    between atoms: _136  and  _138
REMARK   57  A    between atoms: _138  and  _139
REMARK   58  A    between atoms: _138  and  _141
REMARK   59  A    between atoms: _141  and  _142
REMARK   60  A    between atoms: _142  and  _143
REMARK   61  A    between atoms: _143  and  _144
REMARK   62  A    between atoms: _153  and  _155
REMARK   63  A    between atoms: _155  and  _156
REMARK   64  A    between atoms: _155  and  _158
REMARK   65  A    between atoms: _158  and  _159
REMARK   66  A    between atoms: _164  and  _166
REMARK   67  A    between atoms: _166  and  _167
REMARK   68  A    between atoms: _169  and  _171
REMARK   69  A    between atoms: _171  and  _172
REMARK   70  A    between atoms: _171  and  _174
REMARK   71  A    between atoms: _174  and  _175
REMARK   72  A    between atoms: _175  and  _176
REMARK   73  A    between atoms: _176  and  _177
REMARK   74  A    between atoms: _186  and  _188
REMARK   75  A    between atoms: _188  and  _189
REMARK   76  A    between atoms: _191  and  _193
REMARK   77  A    between atoms: _193  and  _194
REMARK   78  A    between atoms: _193  and  _196
REMARK   79  A    between atoms: _196  and  _197
REMARK   80  A    between atoms: _207  and  _209
REMARK   81  A    between atoms: _209  and  _210
REMARK   82  A    between atoms: _213  and  _215
REMARK   83  A    between atoms: _215  and  _216
REMARK   84  A    between atoms: _219  and  _221
REMARK   85  A    between atoms: _221  and  _222
REMARK   86  A    between atoms: _221  and  _224
REMARK   87  A    between atoms: _224  and  _225
REMARK   88  A    between atoms: _228  and  _230
REMARK   89  A    between atoms: _230  and  _231
REMARK   90  A    between atoms: _230  and  _233
REMARK   91  A    between atoms: _233  and  _234
REMARK   92  A    between atoms: _234  and  _235
REMARK   93  A    between atoms: _240  and  _242
REMARK   94  A    between atoms: _242  and  _243
REMARK   95  A    between atoms: _242  and  _245
REMARK   96  A    between atoms: _245  and  _246
REMARK   97  A    between atoms: _249  and  _251
REMARK   98  A    between atoms: _251  and  _252
REMARK   99  A    between atoms: _251  and  _254
REMARK  100  A    between atoms: _254  and  _255
REMARK  101  A    between atoms: _258  and  _260
REMARK  102  A    between atoms: _260  and  _261
REMARK  103  A    between atoms: _260  and  _263
REMARK  104  A    between atoms: _263  and  _264
REMARK  105  A    between atoms: _267  and  _269
REMARK  106  A    between atoms: _269  and  _270
REMARK  107  A    between atoms: _269  and  _272
REMARK  108  A    between atoms: _272  and  _273
REMARK  109  A    between atoms: _275  and  _277
REMARK  110  A    between atoms: _277  and  _278
REMARK  111  A    between atoms: _277  and  _280
REMARK  112  A    between atoms: _283  and  _285
REMARK  113  A    between atoms: _285  and  _286
REMARK  114  A    between atoms: _285  and  _288
REMARK  115  A    between atoms: _288  and  _289
REMARK  116  A    between atoms: _289  and  _290
REMARK  117  A    between atoms: _290  and  _291
REMARK  118  A    between atoms: _291  and  _292
REMARK  119  A    between atoms: _297  and  _298
REMARK  120  A    between atoms: _303  and  _305
REMARK  121  A    between atoms: _305  and  _306
REMARK  122  A    between atoms: _305  and  _308
REMARK  123  A    between atoms: _308  and  _309
REMARK  124  A    between atoms: _314  and  _316
REMARK  125  A    between atoms: _316  and  _317
REMARK  126  A    between atoms: _316  and  _319
REMARK  127  A    between atoms: _319  and  _320
REMARK  128  A    between atoms: _323  and  _325
REMARK  129  A    between atoms: _325  and  _326
REMARK  130  A    between atoms: _325  and  _328
REMARK  131  A    between atoms: _331  and  _333
REMARK  132  A    between atoms: _333  and  _334
REMARK  133  A    between atoms: _336  and  _338
REMARK  134  A    between atoms: _338  and  _339
REMARK  135  A    between atoms: _338  and  _341
REMARK  136  A    between atoms: _341  and  _342
REMARK  137  A    between atoms: _342  and  _343
REMARK  138  A    between atoms: _343  and  _344
REMARK  139  A    between atoms: _344  and  _345
REMARK  140  A    between atoms: _349  and  _351
REMARK  141  A    between atoms: _351  and  _352
REMARK  142  A    between atoms: _351  and  _354
REMARK  143  A    between atoms: _354  and  _355
REMARK  144  A    between atoms: _358  and  _360
REMARK  145  A    between atoms: _360  and  _361
REMARK  146  A    between atoms: _364  and  _366
REMARK  147  A    between atoms: _366  and  _367
REMARK  148  A    between atoms: _369  and  _371
REMARK  149  A    between atoms: _371  and  _372
REMARK  150  A    between atoms: _371  and  _374
REMARK  151  A    between atoms: _374  and  _375
REMARK  152  A    between atoms: _378  and  _380
REMARK  153  A    between atoms: _380  and  _381
REMARK  154  A    between atoms: _380  and  _383
REMARK  155  A    between atoms: _383  and  _384
REMARK  156  A    between atoms: _387  and  _389
REMARK  157  A    between atoms: _389  and  _390
REMARK  158  A    between atoms: _393  and  _395
REMARK  159  A    between atoms: _395  and  _396
REMARK  160  A    between atoms: _395  and  _398
REMARK  161  A    between atoms: _398  and  _399
REMARK  162  A    between atoms: _399  and  _400
REMARK  163  A    between atoms: _403  and  _405
REMARK  164  A    between atoms: _405  and  _406
REMARK  165  A    between atoms: _405  and  _408
REMARK  166  A    between atoms: _411  and  _413
REMARK  167  A    between atoms: _413  and  _414
REMARK  168  A    between atoms: _413  and  _416
REMARK  169  A    between atoms: _416  and  _417
REMARK  170  A    between atoms: _420  and  _422
REMARK  171  A    between atoms: _422  and  _423
REMARK  172  A    between atoms: _425  and  _427
REMARK  173  A    between atoms: _427  and  _428
REMARK  174  A    between atoms: _427  and  _430
REMARK  175  A    between atoms: _433  and  _435
REMARK  176  A    between atoms: _435  and  _436
REMARK  177  A    between atoms: _438  and  _440
REMARK  178  A    between atoms: _440  and  _441
REMARK  179  A    between atoms: _440  and  _443
REMARK  180  A    between atoms: _443  and  _444
REMARK  181  A    between atoms: _447  and  _449
REMARK  182  A    between atoms: _449  and  _450
REMARK  183  A    between atoms: _449  and  _452
REMARK  184  A    between atoms: _452  and  _453
REMARK  185  A    between atoms: _458  and  _460
REMARK  186  A    between atoms: _460  and  _461
REMARK  187  A    between atoms: _460  and  _463
REMARK  188  A    between atoms: _466  and  _468
REMARK  189  A    between atoms: _468  and  _469
REMARK  190  A    between atoms: _468  and  _471
REMARK  191  A    between atoms: _471  and  _472
REMARK  192  A    between atoms: _472  and  _473
REMARK  193  A    between atoms: _478  and  _480
REMARK  194  A    between atoms: _480  and  _481
REMARK  195  A    between atoms: _485  and  _486
REMARK  196  A    between atoms: _491  and  _493
REMARK  197  A    between atoms: _493  and  _494
REMARK  198  A    between atoms: _493  and  _496
REMARK  199  A    between atoms: _496  and  _497
REMARK  200  A    between atoms: _497  and  _498
REMARK  201  A    between atoms: _501  and  _503
REMARK  202  A    between atoms: _503  and  _504
REMARK  203  A    between atoms: _503  and  _506
REMARK  204  A    between atoms: _509  and  _511
REMARK  205  A    between atoms: _511  and  _512
REMARK  206  A    between atoms: _511  and  _514
REMARK  207  A    between atoms: _514  and  _515
REMARK  208  A    between atoms: _519  and  _520
REMARK  209  A    between atoms: _525  and  _527
REMARK  210  A    between atoms: _527  and  _528
REMARK  211  A    between atoms: _527  and  _530
REMARK  212  A    between atoms: _530  and  _531
REMARK  213  A    between atoms: _534  and  _536
REMARK  214  A    between atoms: _536  and  _537
REMARK  215  A    between atoms: _540  and  _542
REMARK  216  A    between atoms: _542  and  _543
REMARK  217  A    between atoms: _542  and  _545
REMARK  218  A    between atoms: _545  and  _546
REMARK  219  A    between atoms: _549  and  _551
REMARK  220  A    between atoms: _551  and  _552
REMARK  221  A    between atoms: _551  and  _554
REMARK  222  A    between atoms: _554  and  _555
REMARK  223  A    between atoms: _557  and  _559
REMARK  224  A    between atoms: _559  and  _560
REMARK  225  A    between atoms: _562  and  _564
REMARK  226  A    between atoms: _564  and  _565
REMARK  227  A    between atoms: _564  and  _567
REMARK  228  A    between atoms: _567  and  _568
REMARK  229  A    between atoms: _571  and  _573
REMARK  230  A    between atoms: _573  and  _574
REMARK  231  A    between atoms: _573  and  _576
REMARK                            x       y       z     vdW  Elec       q    Type
REMARK                         _______ _______ _______ _____ _____    ______ ____
ROOT
ATOM      1  C   ARG A   7       0.270  -6.832   4.556  0.00  0.00    +0.241 C 
ATOM      2  O   ARG A   7       0.320  -5.616   4.747  0.00  0.00    -0.273 OA
ATOM      3  N   HIS A   8       0.989  -7.462   3.631  0.00  0.00    -0.297 N 
ATOM      4  H   HIS A   8       0.944  -8.500   3.591  0.00  0.00    +0.150 HD
ENDROOT
BRANCH   3   5
ATOM      5  CA  HIS A   8       1.840  -6.764   2.668  0.00  0.00    +0.155 C 
BRANCH   5   6
ATOM      6  C   HIS A   8       2.876  -5.865   3.338  0.00  0.00    +0.241 C 
ATOM      7  N   GLY A   9       3.417  -6.326   4.460  0.00  0.00    -0.295 N 
ATOM      8  H   GLY A   9       3.074  -7.225   4.855  0.00  0.00    +0.150 HD
ATOM      9  O   HIS A   8       3.174  -4.775   2.848  0.00  0.00    -0.273 OA
BRANCH   7  10
ATOM     10  CA  GLY A   9       4.474  -5.609   5.149  0.00  0.00    +0.176 C 
BRANCH  10  11
ATOM     11  C   GLY A   9       4.021  -4.336   5.836  0.00  0.00    +0.243 C 
ATOM     12  N   ARG A  10       2.752  -4.285   6.222  0.00  0.00    -0.297 N 
ATOM     13  H   ARG A  10       2.115  -5.075   5.995  0.00  0.00    +0.150 HD
ATOM     14  O   GLY A   9       4.809  -3.407   6.015  0.00  0.00    -0.273 OA
BRANCH  12  15
ATOM     15  CA  ARG A  10       2.239  -3.137   6.960  0.00  0.00    +0.149 C 
BRANCH  15  16
ATOM     16  C   ARG A  10       2.174  -3.436   8.452  0.00  0.00    +0.241 C 
ATOM     17  N   GLY A  11       1.778  -2.440   9.236  0.00  0.00    -0.295 N 
ATOM     18  H   GLY A  11       1.494  -1.537   8.806  0.00  0.00    +0.150 HD
ATOM     19  O   ARG A  10       2.484  -4.546   8.885  0.00  0.00    -0.273 OA
BRANCH  17  20
ATOM     20  CA  GLY A  11       1.732  -2.583  10.679  0.00  0.00    +0.176 C 
BRANCH  20  21
ATOM     21  C   GLY A  11       0.326  -2.746  11.216  0.00  0.00    +0.243 C 
ATOM     22  N   TRP A  12       0.212  -2.802  12.538  0.00  0.00    -0.297 N 
ATOM     23  H   TRP A  12       1.074  -2.796  13.119  0.00  0.00    +0.150 HD
ATOM     24  O   GLY A  11      -0.637  -2.829  10.453  0.00  0.00    -0.273 OA
BRANCH  22  25
ATOM     25  CA  TRP A  12      -1.085  -2.871  13.199  0.00  0.00    +0.153 C 
BRANCH  25  26
ATOM     26  C   TRP A  12      -1.005  -2.156  14.541  0.00  0.00    +0.241 C 
ATOM     27  O   TRP A  12      -0.316  -2.611  15.454  0.00  0.00    -0.273 OA
ATOM     28  N   ALA A  13      -1.704  -1.032  14.654  0.00  0.00    -0.297 N 
ATOM     29  H   ALA A  13      -2.321  -0.736  13.871  0.00  0.00    +0.150 HD
BRANCH  28  30
ATOM     30  CA  ALA A  13      -1.625  -0.204  15.852  0.00  0.00    +0.149 C 
ATOM     31  CB  ALA A  13      -1.875   1.255  15.504  0.00  0.00    +0.031 C 
BRANCH  30  32
ATOM     32  C   ALA A  13      -2.609  -0.673  16.916  0.00  0.00    +0.241 C 
ATOM     33  N   ALA A  14      -2.251  -0.465  18.179  0.00  0.00    -0.297 N 
ATOM     34  H   ALA A  14      -1.354   0.022  18.379  0.00  0.00    +0.150 HD
ATOM     35  O   ALA A  13      -3.671  -1.208  16.598  0.00  0.00    -0.273 OA
BRANCH  33  36
ATOM     36  CA  ALA A  14      -3.085  -0.903  19.290  0.00  0.00    +0.149 C 
ATOM     37  CB  ALA A  14      -2.961  -2.409  19.476  0.00  0.00    +0.031 C 
BRANCH  36  38
ATOM     38  C   ALA A  14      -2.728  -0.186  20.586  0.00  0.00    +0.241 C 
ATOM     39  N   THR A  15      -3.731   0.037  21.430  0.00  0.00    -0.296 N 
ATOM     40  H   THR A  15      -4.708  -0.124  21.112  0.00  0.00    +0.150 HD
ATOM     41  O   ALA A  14      -1.571   0.166  20.811  0.00  0.00    -0.273 OA
BRANCH  39  42
ATOM     42  CA  THR A  15      -3.492   0.502  22.790  0.00  0.00    +0.164 C 
BRANCH  42  43
ATOM     43  C   THR A  15      -3.929  -0.589  23.760  0.00  0.00    +0.229 C 
ATOM     44  O   THR A  15      -4.740  -1.448  23.409  0.00  0.00    -0.286 OA
ENDBRANCH  42  43
BRANCH  42  45
ATOM     45  CB  THR A  15      -4.234   1.819  23.103  0.00  0.00    +0.136 C 
ATOM     46  CG2 THR A  15      -3.839   2.906  22.113  0.00  0.00    +0.034 C 
BRANCH  45  47
ATOM     47  OG1 THR A  15      -5.649   1.607  23.040  0.00  0.00    -0.382 OA
ATOM     48  HG1 THR A  15      -5.895   1.300  22.132  0.00  0.00    +0.210 HD
ENDBRANCH  45  47
ENDBRANCH  42  45
ENDBRANCH  39  42
ENDBRANCH  36  38
ENDBRANCH  33  36
ENDBRANCH  30  32
ENDBRANCH  28  30
ENDBRANCH  25  26
BRANCH  25  49
ATOM     49  CB  TRP A  12      -1.530  -4.324  13.386  0.00  0.00    +0.057 C 
BRANCH  49  50
ATOM     50  CG  TRP A  12      -2.910  -4.457  13.961  0.00  0.00    -0.002 A 
ATOM     51  CD1 TRP A  12      -3.236  -4.765  15.249  0.00  0.00    +0.068 A 
ATOM     52  NE1 TRP A  12      -4.602  -4.790  15.399  0.00  0.00    -0.352 N 
ATOM     53  HE1 TRP A  12      -5.110  -5.002  16.282  0.00  0.00    +0.166 HD
ATOM     54  CE2 TRP A  12      -5.186  -4.491  14.197  0.00  0.00    +0.056 A 
ATOM     55  CZ2 TRP A  12      -6.533  -4.394  13.852  0.00  0.00    +0.017 A 
ATOM     56  CH2 TRP A  12      -6.831  -4.075  12.555  0.00  0.00    +0.001 A 
ATOM     57  CZ3 TRP A  12      -5.825  -3.853  11.607  0.00  0.00    +0.000 A 
ATOM     58  CE3 TRP A  12      -4.486  -3.947  11.949  0.00  0.00    +0.001 A 
ATOM     59  CD2 TRP A  12      -4.151  -4.273  13.267  0.00  0.00    +0.013 A 
ENDBRANCH  49  50
ENDBRANCH  25  49
ENDBRANCH  22  25
ENDBRANCH  20  21
ENDBRANCH  17  20
ENDBRANCH  15  16
BRANCH  15  60
ATOM     60  CB  ARG A  10       0.863  -2.725   6.436  0.00  0.00    +0.033 C 
BRANCH  60  61
ATOM     61  CG  ARG A  10       0.924  -1.745   5.275  0.00  0.00    +0.045 C 
BRANCH  61  62
ATOM     62  CD  ARG A  10       0.320  -2.329   4.011  0.00  0.00    +0.174 C 
BRANCH  62  63
ATOM     63  NE  ARG A  10      -1.088  -2.668   4.189  0.00  0.00    -0.265 N 
ATOM     64  HE  ARG A  10      -1.454  -2.733   5.160  0.00  0.00    +0.259 HD
ATOM     65  CZ  ARG A  10      -1.932  -2.899   3.190  0.00  0.00    +0.342 C 
ATOM     66  NH2 ARG A  10      -3.196  -3.203   3.447  0.00  0.00    -0.292 N 
ATOM     67 HH21 ARG A  10      -3.527  -3.261   4.431  0.00  0.00    +0.255 HD
ATOM     68 HH22 ARG A  10      -3.857  -3.384   2.665  0.00  0.00    +0.255 HD
ATOM     69  NH1 ARG A  10      -1.513  -2.822   1.934  0.00  0.00    -0.292 N 
ATOM     70 HH11 ARG A  10      -0.522  -2.580   1.730  0.00  0.00    +0.255 HD
ATOM     71 HH12 ARG A  10      -2.175  -3.003   1.153  0.00  0.00    +0.255 HD
ENDBRANCH  62  63
ENDBRANCH  61  62
ENDBRANCH  60  61
ENDBRANCH  15  60
ENDBRANCH  12  15
ENDBRANCH  10  11
ENDBRANCH   7  10
ENDBRANCH   5   6
BRANCH   5  72
ATOM     72  CB  HIS A   8       0.982  -5.942   1.702  0.00  0.00    +0.076 C 
BRANCH  72  73
ATOM     73  CG  HIS A   8      -0.117  -6.727   1.057  0.00  0.00    +0.082 A 
ATOM     74  CD2 HIS A   8      -1.464  -6.603   1.133  0.00  0.00    +0.115 A 
ATOM     75  NE2 HIS A   8      -2.007  -7.586   0.342  0.00  0.00    -0.221 NA
ATOM     76  CE1 HIS A   8      -1.029  -8.288  -0.202  0.00  0.00    +0.199 A 
ATOM     77  ND1 HIS A   8       0.122  -7.790   0.213  0.00  0.00    -0.227 NA
ENDBRANCH  72  73
ENDBRANCH   5  72
ENDBRANCH   3   5
BRANCH   1  78
ATOM     78  CA  ARG A   7      -0.641  -7.714   5.402  0.00  0.00    +0.149 C 
BRANCH  78  81
ATOM     79  C   GLY A   6       0.096  -7.020   7.605  0.00  0.00    +0.243 C 
ATOM     80  O   GLY A   6       1.232  -7.450   7.406  0.00  0.00    -0.273 OA
ATOM     81  N   ARG A   7      -0.879  -7.117   6.709  0.00  0.00    -0.297 N 
ATOM     82  H   ARG A   7      -1.828  -6.761   6.944  0.00  0.00    +0.150 HD
BRANCH  79  83
ATOM     83  CA  GLY A   6      -0.250  -6.346   8.916  0.00  0.00    +0.176 C 
BRANCH  83  86
ATOM     84  C   ARG A   5       0.763  -6.852  11.067  0.00  0.00    +0.241 C 
ATOM     85  O   ARG A   5      -0.324  -7.098  11.592  0.00  0.00    -0.273 OA
ATOM     86  N   GLY A   6       0.885  -6.434   9.812  0.00  0.00    -0.295 N 
ATOM     87  H   GLY A   6       1.825  -6.161   9.461  0.00  0.00    +0.150 HD
BRANCH  84  88
ATOM     88  CA  ARG A   5       2.064  -7.025  11.839  0.00  0.00    +0.149 C 
BRANCH  88  90
ATOM     89  C   GLY A   4       2.072  -5.610  13.821  0.00  0.00    +0.243 C 
ATOM     90  N   ARG A   5       1.868  -6.800  13.265  0.00  0.00    -0.297 N 
ATOM     91  H   ARG A   5       1.560  -7.592  13.864  0.00  0.00    +0.150 HD
ATOM     92  O   GLY A   4       2.457  -4.629  13.185  0.00  0.00    -0.273 OA
BRANCH  89  93
ATOM     93  CA  GLY A   4       1.804  -5.517  15.309  0.00  0.00    +0.176 C 
BRANCH  93  95
ATOM     94  C   ALA A   3       4.060  -5.017  16.075  0.00  0.00    +0.241 C 
ATOM     95  N   GLY A   4       2.768  -4.708  16.033  0.00  0.00    -0.295 N 
ATOM     96  H   GLY A   4       2.437  -3.859  16.535  0.00  0.00    +0.150 HD
ATOM     97  O   ALA A   3       4.548  -5.960  15.451  0.00  0.00    -0.273 OA
BRANCH  94  98
ATOM     98  CA  ALA A   3       4.933  -4.129  16.954  0.00  0.00    +0.149 C 
ATOM     99  CB  ALA A   3       6.372  -4.629  16.958  0.00  0.00    +0.031 C 
BRANCH  98 102
ATOM    100  C   THR A   2       4.238  -2.908  18.936  0.00  0.00    +0.243 C 
ATOM    101  O   THR A   2       4.535  -1.831  18.420  0.00  0.00    -0.273 OA
ATOM    102  N   ALA A   3       4.408  -4.071  18.315  0.00  0.00    -0.297 N 
ATOM    103  H   ALA A   3       4.163  -4.954  18.807  0.00  0.00    +0.150 HD
BRANCH 100 104
ATOM    104  CA  THR A   2       3.654  -2.953  20.347  0.00  0.00    +0.176 C 
BRANCH 104 106
ATOM    105  C   GLN A   1       1.515  -4.110  20.484  0.00  0.00    +0.238 C 
ATOM    106  N   THR A   2       2.839  -4.137  20.614  0.00  0.00    -0.295 N 
ATOM    107  H   THR A   2       3.304  -5.019  20.912  0.00  0.00    +0.150 HD
ATOM    108  O   GLN A   1       0.914  -3.164  19.975  0.00  0.00    -0.274 OA
BRANCH 105 109
ATOM    109  CA  GLN A   1       0.748  -5.324  21.004  0.00  0.00    +0.145 C 
BRANCH 109 110
ATOM    110  N   GLN A   1      -0.156  -4.912  22.070  0.00  0.00    -0.238 NA
ATOM    111  H   GLN A   1      -0.760  -4.078  21.924  0.00  0.00    +0.142 HD
ENDBRANCH 109 110
BRANCH 109 112
ATOM    112  CB  GLN A   1      -0.034  -6.001  19.877  0.00  0.00    +0.036 C 
BRANCH 112 113
ATOM    113  CG  GLN A   1       0.812  -6.826  18.923  0.00  0.00    +0.087 C 
BRANCH 113 114
ATOM    114  CD  GLN A   1      -0.029  -7.593  17.920  0.00  0.00    +0.219 C 
ATOM    115  OE1 GLN A   1       0.009  -8.822  17.873  0.00  0.00    -0.275 OA
ATOM    116  NE2 GLN A   1      -0.792  -6.869  17.110  0.00  0.00    -0.329 N 
ATOM    117 HE21 GLN A   1      -0.793  -5.832  17.185  0.00  0.00    +0.145 HD
ATOM    118 HE22 GLN A   1      -1.389  -7.339  16.400  0.00  0.00    +0.145 HD
ENDBRANCH 113 114
ENDBRANCH 112 113
ENDBRANCH 109 112
ENDBRANCH 105 109
ENDBRANCH 104 106
BRANCH 104 119
ATOM    119  CB  THR A   2       4.814  -2.838  21.356  0.00  0.00    +0.137 C 
ATOM    120  CG2 THR A   2       4.274  -2.710  22.771  0.00  0.00    +0.034 C 
BRANCH 119 121
ATOM    121  OG1 THR A   2       5.648  -3.998  21.268  0.00  0.00    -0.382 OA
ATOM    122  HG1 THR A   2       6.016  -4.070  20.352  0.00  0.00    +0.210 HD
ENDBRANCH 119 121
ENDBRANCH 104 119
ENDBRANCH 100 104
ENDBRANCH  98 102
ENDBRANCH  94  98
ENDBRANCH  93  95
ENDBRANCH  89  93
ENDBRANCH  88  90
BRANCH  88 123
ATOM    123  CB  ARG A   5       2.624  -8.425  11.579  0.00  0.00    +0.033 C 
BRANCH 123 124
ATOM    124  CG  ARG A   5       4.007  -8.692  12.147  0.00  0.00    +0.045 C 
BRANCH 124 125
ATOM    125  CD  ARG A   5       4.442 -10.110  11.806  0.00  0.00    +0.174 C 
BRANCH 125 126
ATOM    126  NE  ARG A   5       5.797 -10.410  12.255  0.00  0.00    -0.265 N 
ATOM    127  HE  ARG A   5       6.307  -9.680  12.792  0.00  0.00    +0.259 HD
ATOM    128  CZ  ARG A   5       6.419 -11.560  12.019  0.00  0.00    +0.342 C 
ATOM    129  NH2 ARG A   5       7.654 -11.756  12.463  0.00  0.00    -0.292 N 
ATOM    130 HH21 ARG A   5       8.139 -11.008  12.998  0.00  0.00    +0.255 HD
ATOM    131 HH22 ARG A   5       8.137 -12.658  12.276  0.00  0.00    +0.255 HD
ATOM    132  NH1 ARG A   5       5.805 -12.516  11.336  0.00  0.00    -0.292 N 
ATOM    133 HH11 ARG A   5       6.291 -13.417  11.151  0.00  0.00    +0.255 HD
ATOM    134 HH12 ARG A   5       4.837 -12.365  10.986  0.00  0.00    +0.255 HD
ENDBRANCH 125 126
ENDBRANCH 124 125
ENDBRANCH 123 124
ENDBRANCH  88 123
ENDBRANCH  84  88
ENDBRANCH  83  86
ENDBRANCH  79  83
ENDBRANCH  78  81
BRANCH  78 135
ATOM    135  CB  ARG A   7      -1.961  -7.955   4.667  0.00  0.00    +0.033 C 
BRANCH 135 136
ATOM    136  CG  ARG A   7      -2.894  -8.931   5.359  0.00  0.00    +0.045 C 
BRANCH 136 137
ATOM    137  CD  ARG A   7      -4.002  -9.385   4.421  0.00  0.00    +0.174 C 
BRANCH 137 138
ATOM    138  NE  ARG A   7      -4.819  -8.272   3.946  0.00  0.00    -0.265 N 
ATOM    139  CZ  ARG A   7      -5.954  -7.879   4.518  0.00  0.00    +0.342 C 
ATOM    140  NH2 ARG A   7      -6.412  -8.507   5.593  0.00  0.00    -0.292 N 
ATOM    141 HH21 ARG A   7      -7.300  -8.197   6.038  0.00  0.00    +0.255 HD
ATOM    142 HH22 ARG A   7      -5.883  -9.309   5.991  0.00  0.00    +0.255 HD
ATOM    143  NH1 ARG A   7      -6.632  -6.857   4.014  0.00  0.00    -0.292 N 
ATOM    144 HH11 ARG A   7      -7.519  -6.550   4.462  0.00  0.00    +0.255 HD
ATOM    145 HH12 ARG A   7      -6.277  -6.362   3.171  0.00  0.00    +0.255 HD
ATOM    146  HE  ARG A   7      -4.493  -7.753   3.106  0.00  0.00    +0.259 HD
ENDBRANCH 137 138
ENDBRANCH 136 137
ENDBRANCH 135 136
ENDBRANCH  78 135
ENDBRANCH   1  78
TORSDOF 53
REMARK  Name = ../refined-set-2016/4xu3/4xu3_pocket.pdb
REMARK  231 active torsions:
REMARK  status: ('A' for Active; 'I' for Inactive)
REMARK    1  A    between atoms: _1  and  _3
REMARK    2  A    between atoms: _3  and  _4
REMARK    3  A    between atoms: _3  and  _6
REMARK    4  A    between atoms: _6  and  _7
REMARK    5  A    between atoms: _10  and  _12
REMARK    6  A    between atoms: _12  and  _13
REMARK    7  A    between atoms: _15  and  _17
REMARK    8  A    between atoms: _17  and  _18
REMARK    9  A    between atoms: _17  and  _20
REMARK   10  A    between atoms: _20  and  _21
REMARK   11  A    between atoms: _23  and  _25
REMARK   12  A    between atoms: _25  and  _26
REMARK   13  A    between atoms: _25  and  _28
REMARK   14  A    between atoms: _28  and  _29
REMARK   15  A    between atoms: _32  and  _34
REMARK   16  A    between atoms: _34  and  _35
REMARK   17  A    between atoms: _34  and  _37
REMARK   18  A    between atoms: _37  and  _38
REMARK   19  A    between atoms: _43  and  _45
REMARK   20  A    between atoms: _45  and  _46
REMARK   21  A    between atoms: _49  and  _51
REMARK   22  A    between atoms: _51  and  _52
REMARK   23  A    between atoms: _51  and  _54
REMARK   24  A    between atoms: _54  and  _55
REMARK   25  A    between atoms: _58  and  _60
REMARK   26  A    between atoms: _60  and  _61
REMARK   27  A    between atoms: _60  and  _63
REMARK   28  A    between atoms: _63  and  _64
REMARK   29  A    between atoms: _67  and  _69
REMARK   30  A    between atoms: _69  and  _70
REMARK   31  A    between atoms: _69  and  _72
REMARK   32  A    between atoms: _72  and  _73
REMARK   33  A    between atoms: _76  and  _78
REMARK   34  A    between atoms: _78  and  _79
REMARK   35  A    between atoms: _82  and  _84
REMARK   36  A    between atoms: _84  and  _85
REMARK   37  A    between atoms: _84  and  _87
REMARK   38  A    between atoms: _87  and  _88
REMARK   39  A    between atoms: _88  and  _89
REMARK   40  A    between atoms: _94  and  _96
REMARK   41  A    between atoms: _96  and  _97
REMARK   42  A    between atoms: _96  and  _99
REMARK   43  A    between atoms: _99  and  _100
REMARK   44  A    between atoms: _103  and  _105
REMARK   45  A    between atoms: _105  and  _106
REMARK   46  A    between atoms: _109  and  _111
REMARK   47  A    between atoms: _111  and  _112
REMARK   48  A    between atoms: _114  and  _116
REMARK   49  A    between atoms: _116  and  _117
REMARK   50  A    between atoms: _116  and  _119
REMARK   51  A    between atoms: _119  and  _120
REMARK   52  A    between atoms: _120  and  _121
REMARK   53  A    between atoms: _121  and  _122
REMARK   54  A    between atoms: _131  and  _133
REMARK   55  A    between atoms: _133  and  _134
REMARK   56  A    between atoms: _136  and  _138
REMARK   57  A    between atoms: _138  and  _139
REMARK   58  A    between atoms: _138  and  _141
REMARK   59  A    between atoms: _141  and  _142
REMARK   60  A    between atoms: _142  and  _143
REMARK   61  A    between atoms: _143  and  _144
REMARK   62  A    between atoms: _153  and  _155
REMARK   63  A    between atoms: _155  and  _156
REMARK   64  A    between atoms: _155  and  _158
REMARK   65  A    between atoms: _158  and  _159
REMARK   66  A    between atoms: _164  and  _166
REMARK   67  A    between atoms: _166  and  _167
REMARK   68  A    between atoms: _169  and  _171
REMARK   69  A    between atoms: _171  and  _172
REMARK   70  A    between atoms: _171  and  _174
REMARK   71  A    between atoms: _174  and  _175
REMARK   72  A    between atoms: _175  and  _176
REMARK   73  A    between atoms: _176  and  _177
REMARK   74  A    between atoms: _186  and  _188
REMARK   75  A    between atoms: _188  and  _189
REMARK   76  A    between atoms: _191  and  _193
REMARK   77  A    between atoms: _193  and  _194
REMARK   78  A    between atoms: _193  and  _196
REMARK   79  A    between atoms: _196  and  _197
REMARK   80  A    between atoms: _207  and  _209
REMARK   81  A    between atoms: _209  and  _210
REMARK   82  A    between atoms: _213  and  _215
REMARK   83  A    between atoms: _215  and  _216
REMARK   84  A    between atoms: _219  and  _221
REMARK   85  A    between atoms: _221  and  _222
REMARK   86  A    between atoms: _221  and  _224
REMARK   87  A    between atoms: _224  and  _225
REMARK   88  A    between atoms: _228  and  _230
REMARK   89  A    between atoms: _230  and  _231
REMARK   90  A    between atoms: _230  and  _233
REMARK   91  A    between atoms: _233  and  _234
REMARK   92  A    between atoms: _234  and  _235
REMARK   93  A    between atoms: _240  and  _242
REMARK   94  A    between atoms: _242  and  _243
REMARK   95  A    between atoms: _242  and  _245
REMARK   96  A    between atoms: _245  and  _246
REMARK   97  A    between atoms: _249  and  _251
REMARK   98  A    between atoms: _251  and  _252
REMARK   99  A    between atoms: _251  and  _254
REMARK  100  A    between atoms: _254  and  _255
REMARK  101  A    between atoms: _258  and  _260
REMARK  102  A    between atoms: _260  and  _261
REMARK  103  A    between atoms: _260  and  _263
REMARK  104  A    between atoms: _263  and  _264
REMARK  105  A    between atoms: _267  and  _269
REMARK  106  A    between atoms: _269  and  _270
REMARK  107  A    between atoms: _269  and  _272
REMARK  108  A    between atoms: _272  and  _273
REMARK  109  A    between atoms: _275  and  _277
REMARK  110  A    between atoms: _277  and  _278
REMARK  111  A    between atoms: _277  and  _280
REMARK  112  A    between atoms: _283  and  _285
REMARK  113  A    between atoms: _285  and  _286
REMARK  114  A    between atoms: _285  and  _288
REMARK  115  A    between atoms: _288  and  _289
REMARK  116  A    between atoms: _289  and  _290
REMARK  117  A    between atoms: _290  and  _291
REMARK  118  A    between atoms: _291  and  _292
REMARK  119  A    between atoms: _297  and  _298
REMARK  120  A    between atoms: _303  and  _305
REMARK  121  A    between atoms: _305  and  _306
REMARK  122  A    between atoms: _305  and  _308
REMARK  123  A    between atoms: _308  and  _309
REMARK  124  A    between atoms: _314  and  _316
REMARK  125  A    between atoms: _316  and  _317
REMARK  126  A    between atoms: _316  and  _319
REMARK  127  A    between atoms: _319  and  _320
REMARK  128  A    between atoms: _323  and  _325
REMARK  129  A    between atoms: _325  and  _326
REMARK  130  A    between atoms: _325  and  _328
REMARK  131  A    between atoms: _331  and  _333
REMARK  132  A    between atoms: _333  and  _334
REMARK  133  A    between atoms: _336  and  _338
REMARK  134  A    between atoms: _338  and  _339
REMARK  135  A    between atoms: _338  and  _341
REMARK  136  A    between atoms: _341  and  _342
REMARK  137  A    between atoms: _342  and  _343
REMARK  138  A    between atoms: _343  and  _344
REMARK  139  A    between atoms: _344  and  _345
REMARK  140  A    between atoms: _349  and  _351
REMARK  141  A    between atoms: _351  and  _352
REMARK  142  A    between atoms: _351  and  _354
REMARK  143  A    between atoms: _354  and  _355
REMARK  144  A    between atoms: _358  and  _360
REMARK  145  A    between atoms: _360  and  _361
REMARK  146  A    between atoms: _364  and  _366
REMARK  147  A    between atoms: _366  and  _367
REMARK  148  A    between atoms: _369  and  _371
REMARK  149  A    between atoms: _371  and  _372
REMARK  150  A    between atoms: _371  and  _374
REMARK  151  A    between atoms: _374  and  _375
REMARK  152  A    between atoms: _378  and  _380
REMARK  153  A    between atoms: _380  and  _381
REMARK  154  A    between atoms: _380  and  _383
REMARK  155  A    between atoms: _383  and  _384
REMARK  156  A    between atoms: _387  and  _389
REMARK  157  A    between atoms: _389  and  _390
REMARK  158  A    between atoms: _393  and  _395
REMARK  159  A    between atoms: _395  and  _396
REMARK  160  A    between atoms: _395  and  _398
REMARK  161  A    between atoms: _398  and  _399
REMARK  162  A    between atoms: _399  and  _400
REMARK  163  A    between atoms: _403  and  _405
REMARK  164  A    between atoms: _405  and  _406
REMARK  165  A    between atoms: _405  and  _408
REMARK  166  A    between atoms: _411  and  _413
REMARK  167  A    between atoms: _413  and  _414
REMARK  168  A    between atoms: _413  and  _416
REMARK  169  A    between atoms: _416  and  _417
REMARK  170  A    between atoms: _420  and  _422
REMARK  171  A    between atoms: _422  and  _423
REMARK  172  A    between atoms: _425  and  _427
REMARK  173  A    between atoms: _427  and  _428
REMARK  174  A    between atoms: _427  and  _430
REMARK  175  A    between atoms: _433  and  _435
REMARK  176  A    between atoms: _435  and  _436
REMARK  177  A    between atoms: _438  and  _440
REMARK  178  A    between atoms: _440  and  _441
REMARK  179  A    between atoms: _440  and  _443
REMARK  180  A    between atoms: _443  and  _444
REMARK  181  A    between atoms: _447  and  _449
REMARK  182  A    between atoms: _449  and  _450
REMARK  183  A    between atoms: _449  and  _452
REMARK  184  A    between atoms: _452  and  _453
REMARK  185  A    between atoms: _458  and  _460
REMARK  186  A    between atoms: _460  and  _461
REMARK  187  A    between atoms: _460  and  _463
REMARK  188  A    between atoms: _466  and  _468
REMARK  189  A    between atoms: _468  and  _469
REMARK  190  A    between atoms: _468  and  _471
REMARK  191  A    between atoms: _471  and  _472
REMARK  192  A    between atoms: _472  and  _473
REMARK  193  A    between atoms: _478  and  _480
REMARK  194  A    between atoms: _480  and  _481
REMARK  195  A    between atoms: _485  and  _486
REMARK  196  A    between atoms: _491  and  _493
REMARK  197  A    between atoms: _493  and  _494
REMARK  198  A    between atoms: _493  and  _496
REMARK  199  A    between atoms: _496  and  _497
REMARK  200  A    between atoms: _497  and  _498
REMARK  201  A    between atoms: _501  and  _503
REMARK  202  A    between atoms: _503  and  _504
REMARK  203  A    between atoms: _503  and  _506
REMARK  204  A    between atoms: _509  and  _511
REMARK  205  A    between atoms: _511  and  _512
REMARK  206  A    between atoms: _511  and  _514
REMARK  207  A    between atoms: _514  and  _515
REMARK  208  A    between atoms: _519  and  _520
REMARK  209  A    between atoms: _525  and  _527
REMARK  210  A    between atoms: _527  and  _528
REMARK  211  A    between atoms: _527  and  _530
REMARK  212  A    between atoms: _530  and  _531
REMARK  213  A    between atoms: _534  and  _536
REMARK  214  A    between atoms: _536  and  _537
REMARK  215  A    between atoms: _540  and  _542
REMARK  216  A    between atoms: _542  and  _543
REMARK  217  A    between atoms: _542  and  _545
REMARK  218  A    between atoms: _545  and  _546
REMARK  219  A    between atoms: _549  and  _551
REMARK  220  A    between atoms: _551  and  _552
REMARK  221  A    between atoms: _551  and  _554
REMARK  222  A    between atoms: _554  and  _555
REMARK  223  A    between atoms: _557  and  _559
REMARK  224  A    between atoms: _559  and  _560
REMARK  225  A    between atoms: _562  and  _564
REMARK  226  A    between atoms: _564  and  _565
REMARK  227  A    between atoms: _564  and  _567
REMARK  228  A    between atoms: _567  and  _568
REMARK  229  A    between atoms: _571  and  _573
REMARK  230  A    between atoms: _573  and  _574
REMARK  231  A    between atoms: _573  and  _576
REMARK                            x       y       z     vdW  Elec       q    Type
REMARK                         _______ _______ _______ _____ _____    ______ ____
ROOT
ATOM      1  CA  ILE A   3      -5.432  -9.433  20.110  0.00  0.00    +0.149 C 
ENDROOT
BRANCH   1   3
ATOM      2  C   ILE A   2      -7.795  -8.909  20.346  0.00  0.00    +0.241 C 
ATOM      3  N   ILE A   3      -6.620  -9.165  20.907  0.00  0.00    -0.297 N 
ATOM      4  H   ILE A   3      -6.546  -9.174  21.944  0.00  0.00    +0.150 HD
ATOM      5  O   ILE A   2      -7.985  -8.951  19.129  0.00  0.00    -0.273 OA
BRANCH   2   6
ATOM      6  CA  ILE A   2      -8.915  -8.517  21.299  0.00  0.00    +0.148 C 
BRANCH   6   9
ATOM      7  C   GLN A   1      -8.689  -6.184  21.936  0.00  0.00    +0.238 C 
ATOM      8  O   GLN A   1      -8.289  -6.446  23.070  0.00  0.00    -0.274 OA
ATOM      9  N   ILE A   2      -9.167  -7.099  21.102  0.00  0.00    -0.297 N 
ATOM     10  H   ILE A   2      -9.736  -6.794  20.287  0.00  0.00    +0.150 HD
BRANCH   7  11
ATOM     11  CA  GLN A   1      -8.673  -4.759  21.403  0.00  0.00    +0.145 C 
BRANCH  11  12
ATOM     12  N   GLN A   1      -8.334  -3.788  22.435  0.00  0.00    -0.238 NA
ATOM     13  H   GLN A   1      -7.472  -3.926  23.000  0.00  0.00    +0.142 HD
ENDBRANCH  11  12
BRANCH  11  14
ATOM     14  CB  GLN A   1      -7.681  -4.680  20.237  0.00  0.00    +0.036 C 
BRANCH  14  15
ATOM     15  CG  GLN A   1      -7.519  -3.308  19.607  0.00  0.00    +0.087 C 
BRANCH  15  16
ATOM     16  CD  GLN A   1      -6.559  -3.329  18.431  0.00  0.00    +0.219 C 
ATOM     17  NE2 GLN A   1      -6.042  -2.162  18.067  0.00  0.00    -0.329 N 
ATOM     18 HE21 GLN A   1      -6.307  -1.294  18.576  0.00  0.00    +0.145 HD
ATOM     19 HE22 GLN A   1      -5.372  -2.115  17.273  0.00  0.00    +0.145 HD
ATOM     20  OE1 GLN A   1      -6.279  -4.387  17.863  0.00  0.00    -0.275 OA
ENDBRANCH  15  16
ENDBRANCH  14  15
ENDBRANCH  11  14
ENDBRANCH   7  11
ENDBRANCH   6   9
BRANCH   6  21
ATOM     21  CB  ILE A   2     -10.162  -9.378  21.050  0.00  0.00    +0.027 C 
ATOM     22  CG2 ILE A   2      -9.787 -10.850  20.971  0.00  0.00    +0.002 C 
BRANCH  21  23
ATOM     23  CG1 ILE A   2     -11.186  -9.153  22.165  0.00  0.00    +0.002 C 
ATOM     24  CD1 ILE A   2     -12.390 -10.063  22.084  0.00  0.00    +0.000 C 
ENDBRANCH  21  23
ENDBRANCH   6  21
ENDBRANCH   2   6
ENDBRANCH   1   3
BRANCH   1  25
ATOM     25  C   ILE A   3      -4.967 -10.865  20.317  0.00  0.00    +0.241 C 
ATOM     26  O   ILE A   3      -4.393 -11.194  21.354  0.00  0.00    -0.273 OA
ATOM     27  N   LEU A   4      -5.219 -11.720  19.332  0.00  0.00    -0.297 N 
ATOM     28  H   LEU A   4      -5.659 -11.381  18.453  0.00  0.00    +0.150 HD
BRANCH  27  29
ATOM     29  CA  LEU A   4      -4.883 -13.129  19.476  0.00  0.00    +0.149 C 
BRANCH  29  30
ATOM     30  C   LEU A   4      -4.322 -13.756  18.207  0.00  0.00    +0.241 C 
ATOM     31  N   SER A   5      -3.606 -14.858  18.394  0.00  0.00    -0.295 N 
ATOM     32  H   SER A   5      -3.368 -15.140  19.366  0.00  0.00    +0.150 HD
ATOM     33  O   LEU A   4      -4.532 -13.262  17.100  0.00  0.00    -0.273 OA
BRANCH  31  34
ATOM     34  CA  SER A   5      -3.142 -15.685  17.294  0.00  0.00    +0.178 C 
BRANCH  34  35
ATOM     35  C   SER A   5      -3.418 -17.145  17.629  0.00  0.00    +0.243 C 
ATOM     36  O   SER A   5      -3.329 -17.544  18.790  0.00  0.00    -0.273 OA
ATOM     37  N   VAL A   6      -3.773 -17.935  16.622  0.00  0.00    -0.298 N 
ATOM     38  H   VAL A   6      -3.915 -17.527  15.676  0.00  0.00    +0.150 HD
BRANCH  37  39
ATOM     39  CA  VAL A   6      -3.967 -19.366  16.823  0.00  0.00    +0.137 C 
BRANCH  39  40
ATOM     40  CB  VAL A   6      -5.458 -19.780  16.691  0.00  0.00    +0.026 C 
ATOM     41  CG2 VAL A   6      -6.328 -18.964  17.638  0.00  0.00    +0.002 C 
ATOM     42  CG1 VAL A   6      -5.943 -19.632  15.256  0.00  0.00    +0.002 C 
ENDBRANCH  39  40
BRANCH  39  43
ATOM     43  C   VAL A   6      -3.130 -20.157  15.825  0.00  0.00    +0.227 C 
ATOM     44  O   VAL A   6      -2.850 -19.685  14.722  0.00  0.00    -0.286 OA
ENDBRANCH  39  43
ENDBRANCH  37  39
ENDBRANCH  34  35
BRANCH  34  45
ATOM     45  CB  SER A   5      -1.649 -15.463  17.031  0.00  0.00    +0.166 C 
BRANCH  45  46
ATOM     46  OG  SER A   5      -1.400 -14.160  16.531  0.00  0.00    -0.380 OA
ATOM     47  H   SER A   5      -1.706 -13.490  17.192  0.00  0.00    +0.211 HD
ENDBRANCH  45  46
ENDBRANCH  34  45
ENDBRANCH  31  34
ENDBRANCH  29  30
BRANCH  29  48
ATOM     48  CB  LEU A   4      -6.111 -13.925  19.943  0.00  0.00    +0.029 C 
BRANCH  48  49
ATOM     49  CG  LEU A   4      -7.422 -13.890  19.149  0.00  0.00    +0.002 C 
ATOM     50  CD2 LEU A   4      -8.586 -14.238  20.063  0.00  0.00    +0.000 C 
ATOM     51  CD1 LEU A   4      -7.402 -14.830  17.949  0.00  0.00    +0.000 C 
ENDBRANCH  48  49
ENDBRANCH  29  48
ENDBRANCH  27  29
ENDBRANCH   1  25
BRANCH   1  52
ATOM     52  CB  ILE A   3      -4.293  -8.459  20.467  0.00  0.00    +0.027 C 
ATOM     53  CG2 ILE A   3      -3.040  -8.777  19.669  0.00  0.00    +0.002 C 
BRANCH  52  54
ATOM     54  CG1 ILE A   3      -4.735  -7.014  20.230  0.00  0.00    +0.002 C 
ATOM     55  CD1 ILE A   3      -3.687  -5.985  20.593  0.00  0.00    +0.000 C 
ENDBRANCH  52  54
ENDBRANCH   1  52
TORSDOF 24
REMARK  Name = ../refined-set-2016/4xu3/4xu3_pocket.pdb
REMARK  231 active torsions:
REMARK  status: ('A' for Active; 'I' for Inactive)
REMARK    1  A    between atoms: _1  and  _3
REMARK    2  A    between atoms: _3  and  _4
REMARK    3  A    between atoms: _3  and  _6
REMARK    4  A    between atoms: _6  and  _7
REMARK    5  A    between atoms: _10  and  _12
REMARK    6  A    between atoms: _12  and  _13
REMARK    7  A    between atoms: _15  and  _17
REMARK    8  A    between atoms: _17  and  _18
REMARK    9  A    between atoms: _17  and  _20
REMARK   10  A    between atoms: _20  and  _21
REMARK   11  A    between atoms: _23  and  _25
REMARK   12  A    between atoms: _25  and  _26
REMARK   13  A    between atoms: _25  and  _28
REMARK   14  A    between atoms: _28  and  _29
REMARK   15  A    between atoms: _32  and  _34
REMARK   16  A    between atoms: _34  and  _35
REMARK   17  A    between atoms: _34  and  _37
REMARK   18  A    between atoms: _37  and  _38
REMARK   19  A    between atoms: _43  and  _45
REMARK   20  A    between atoms: _45  and  _46
REMARK   21  A    between atoms: _49  and  _51
REMARK   22  A    between atoms: _51  and  _52
REMARK   23  A    between atoms: _51  and  _54
REMARK   24  A    between atoms: _54  and  _55
REMARK   25  A    between atoms: _58  and  _60
REMARK   26  A    between atoms: _60  and  _61
REMARK   27  A    between atoms: _60  and  _63
REMARK   28  A    between atoms: _63  and  _64
REMARK   29  A    between atoms: _67  and  _69
REMARK   30  A    between atoms: _69  and  _70
REMARK   31  A    between atoms: _69  and  _72
REMARK   32  A    between atoms: _72  and  _73
REMARK   33  A    between atoms: _76  and  _78
REMARK   34  A    between atoms: _78  and  _79
REMARK   35  A    between atoms: _82  and  _84
REMARK   36  A    between atoms: _84  and  _85
REMARK   37  A    between atoms: _84  and  _87
REMARK   38  A    between atoms: _87  and  _88
REMARK   39  A    between atoms: _88  and  _89
REMARK   40  A    between atoms: _94  and  _96
REMARK   41  A    between atoms: _96  and  _97
REMARK   42  A    between atoms: _96  and  _99
REMARK   43  A    between atoms: _99  and  _100
REMARK   44  A    between atoms: _103  and  _105
REMARK   45  A    between atoms: _105  and  _106
REMARK   46  A    between atoms: _109  and  _111
REMARK   47  A    between atoms: _111  and  _112
REMARK   48  A    between atoms: _114  and  _116
REMARK   49  A    between atoms: _116  and  _117
REMARK   50  A    between atoms: _116  and  _119
REMARK   51  A    between atoms: _119  and  _120
REMARK   52  A    between atoms: _120  and  _121
REMARK   53  A    between atoms: _121  and  _122
REMARK   54  A    between atoms: _131  and  _133
REMARK   55  A    between atoms: _133  and  _134
REMARK   56  A    between atoms: _136  and  _138
REMARK   57  A    between atoms: _138  and  _139
REMARK   58  A    between atoms: _138  and  _141
REMARK   59  A    between atoms: _141  and  _142
REMARK   60  A    between atoms: _142  and  _143
REMARK   61  A    between atoms: _143  and  _144
REMARK   62  A    between atoms: _153  and  _155
REMARK   63  A    between atoms: _155  and  _156
REMARK   64  A    between atoms: _155  and  _158
REMARK   65  A    between atoms: _158  and  _159
REMARK   66  A    between atoms: _164  and  _166
REMARK   67  A    between atoms: _166  and  _167
REMARK   68  A    between atoms: _169  and  _171
REMARK   69  A    between atoms: _171  and  _172
REMARK   70  A    between atoms: _171  and  _174
REMARK   71  A    between atoms: _174  and  _175
REMARK   72  A    between atoms: _175  and  _176
REMARK   73  A    between atoms: _176  and  _177
REMARK   74  A    between atoms: _186  and  _188
REMARK   75  A    between atoms: _188  and  _189
REMARK   76  A    between atoms: _191  and  _193
REMARK   77  A    between atoms: _193  and  _194
REMARK   78  A    between atoms: _193  and  _196
REMARK   79  A    between atoms: _196  and  _197
REMARK   80  A    between atoms: _207  and  _209
REMARK   81  A    between atoms: _209  and  _210
REMARK   82  A    between atoms: _213  and  _215
REMARK   83  A    between atoms: _215  and  _216
REMARK   84  A    between atoms: _219  and  _221
REMARK   85  A    between atoms: _221  and  _222
REMARK   86  A    between atoms: _221  and  _224
REMARK   87  A    between atoms: _224  and  _225
REMARK   88  A    between atoms: _228  and  _230
REMARK   89  A    between atoms: _230  and  _231
REMARK   90  A    between atoms: _230  and  _233
REMARK   91  A    between atoms: _233  and  _234
REMARK   92  A    between atoms: _234  and  _235
REMARK   93  A    between atoms: _240  and  _242
REMARK   94  A    between atoms: _242  and  _243
REMARK   95  A    between atoms: _242  and  _245
REMARK   96  A    between atoms: _245  and  _246
REMARK   97  A    between atoms: _249  and  _251
REMARK   98  A    between atoms: _251  and  _252
REMARK   99  A    between atoms: _251  and  _254
REMARK  100  A    between atoms: _254  and  _255
REMARK  101  A    between atoms: _258  and  _260
REMARK  102  A    between atoms: _260  and  _261
REMARK  103  A    between atoms: _260  and  _263
REMARK  104  A    between atoms: _263  and  _264
REMARK  105  A    between atoms: _267  and  _269
REMARK  106  A    between atoms: _269  and  _270
REMARK  107  A    between atoms: _269  and  _272
REMARK  108  A    between atoms: _272  and  _273
REMARK  109  A    between atoms: _275  and  _277
REMARK  110  A    between atoms: _277  and  _278
REMARK  111  A    between atoms: _277  and  _280
REMARK  112  A    between atoms: _283  and  _285
REMARK  113  A    between atoms: _285  and  _286
REMARK  114  A    between atoms: _285  and  _288
REMARK  115  A    between atoms: _288  and  _289
REMARK  116  A    between atoms: _289  and  _290
REMARK  117  A    between atoms: _290  and  _291
REMARK  118  A    between atoms: _291  and  _292
REMARK  119  A    between atoms: _297  and  _298
REMARK  120  A    between atoms: _303  and  _305
REMARK  121  A    between atoms: _305  and  _306
REMARK  122  A    between atoms: _305  and  _308
REMARK  123  A    between atoms: _308  and  _309
REMARK  124  A    between atoms: _314  and  _316
REMARK  125  A    between atoms: _316  and  _317
REMARK  126  A    between atoms: _316  and  _319
REMARK  127  A    between atoms: _319  and  _320
REMARK  128  A    between atoms: _323  and  _325
REMARK  129  A    between atoms: _325  and  _326
REMARK  130  A    between atoms: _325  and  _328
REMARK  131  A    between atoms: _331  and  _333
REMARK  132  A    between atoms: _333  and  _334
REMARK  133  A    between atoms: _336  and  _338
REMARK  134  A    between atoms: _338  and  _339
REMARK  135  A    between atoms: _338  and  _341
REMARK  136  A    between atoms: _341  and  _342
REMARK  137  A    between atoms: _342  and  _343
REMARK  138  A    between atoms: _343  and  _344
REMARK  139  A    between atoms: _344  and  _345
REMARK  140  A    between atoms: _349  and  _351
REMARK  141  A    between atoms: _351  and  _352
REMARK  142  A    between atoms: _351  and  _354
REMARK  143  A    between atoms: _354  and  _355
REMARK  144  A    between atoms: _358  and  _360
REMARK  145  A    between atoms: _360  and  _361
REMARK  146  A    between atoms: _364  and  _366
REMARK  147  A    between atoms: _366  and  _367
REMARK  148  A    between atoms: _369  and  _371
REMARK  149  A    between atoms: _371  and  _372
REMARK  150  A    between atoms: _371  and  _374
REMARK  151  A    between atoms: _374  and  _375
REMARK  152  A    between atoms: _378  and  _380
REMARK  153  A    between atoms: _380  and  _381
REMARK  154  A    between atoms: _380  and  _383
REMARK  155  A    between atoms: _383  and  _384
REMARK  156  A    between atoms: _387  and  _389
REMARK  157  A    between atoms: _389  and  _390
REMARK  158  A    between atoms: _393  and  _395
REMARK  159  A    between atoms: _395  and  _396
REMARK  160  A    between atoms: _395  and  _398
REMARK  161  A    between atoms: _398  and  _399
REMARK  162  A    between atoms: _399  and  _400
REMARK  163  A    between atoms: _403  and  _405
REMARK  164  A    between atoms: _405  and  _406
REMARK  165  A    between atoms: _405  and  _408
REMARK  166  A    between atoms: _411  and  _413
REMARK  167  A    between atoms: _413  and  _414
REMARK  168  A    between atoms: _413  and  _416
REMARK  169  A    between atoms: _416  and  _417
REMARK  170  A    between atoms: _420  and  _422
REMARK  171  A    between atoms: _422  and  _423
REMARK  172  A    between atoms: _425  and  _427
REMARK  173  A    between atoms: _427  and  _428
REMARK  174  A    between atoms: _427  and  _430
REMARK  175  A    between atoms: _433  and  _435
REMARK  176  A    between atoms: _435  and  _436
REMARK  177  A    between atoms: _438  and  _440
REMARK  178  A    between atoms: _440  and  _441
REMARK  179  A    between atoms: _440  and  _443
REMARK  180  A    between atoms: _443  and  _444
REMARK  181  A    between atoms: _447  and  _449
REMARK  182  A    between atoms: _449  and  _450
REMARK  183  A    between atoms: _449  and  _452
REMARK  184  A    between atoms: _452  and  _453
REMARK  185  A    between atoms: _458  and  _460
REMARK  186  A    between atoms: _460  and  _461
REMARK  187  A    between atoms: _460  and  _463
REMARK  188  A    between atoms: _466  and  _468
REMARK  189  A    between atoms: _468  and  _469
REMARK  190  A    between atoms: _468  and  _471
REMARK  191  A    between atoms: _471  and  _472
REMARK  192  A    between atoms: _472  and  _473
REMARK  193  A    between atoms: _478  and  _480
REMARK  194  A    between atoms: _480  and  _481
REMARK  195  A    between atoms: _485  and  _486
REMARK  196  A    between atoms: _491  and  _493
REMARK  197  A    between atoms: _493  and  _494
REMARK  198  A    between atoms: _493  and  _496
REMARK  199  A    between atoms: _496  and  _497
REMARK  200  A    between atoms: _497  and  _498
REMARK  201  A    between atoms: _501  and  _503
REMARK  202  A    between atoms: _503  and  _504
REMARK  203  A    between atoms: _503  and  _506
REMARK  204  A    between atoms: _509  and  _511
REMARK  205  A    between atoms: _511  and  _512
REMARK  206  A    between atoms: _511  and  _514
REMARK  207  A    between atoms: _514  and  _515
REMARK  208  A    between atoms: _519  and  _520
REMARK  209  A    between atoms: _525  and  _527
REMARK  210  A    between atoms: _527  and  _528
REMARK  211  A    between atoms: _527  and  _530
REMARK  212  A    between atoms: _530  and  _531
REMARK  213  A    between atoms: _534  and  _536
REMARK  214  A    between atoms: _536  and  _537
REMARK  215  A    between atoms: _540  and  _542
REMARK  216  A    between atoms: _542  and  _543
REMARK  217  A    between atoms: _542  and  _545
REMARK  218  A    between atoms: _545  and  _546
REMARK  219  A    between atoms: _549  and  _551
REMARK  220  A    between atoms: _551  and  _552
REMARK  221  A    between atoms: _551  and  _554
REMARK  222  A    between atoms: _554  and  _555
REMARK  223  A    between atoms: _557  and  _559
REMARK  224  A    between atoms: _559  and  _560
REMARK  225  A    between atoms: _562  and  _564
REMARK  226  A    between atoms: _564  and  _565
REMARK  227  A    between atoms: _564  and  _567
REMARK  228  A    between atoms: _567  and  _568
REMARK  229  A    between atoms: _571  and  _573
REMARK  230  A    between atoms: _573  and  _574
REMARK  231  A    between atoms: _573  and  _576
REMARK                            x       y       z     vdW  Elec       q    Type
REMARK                         _______ _______ _______ _____ _____    ______ ____
ROOT
ATOM      1  CG  LYS A   1     -13.434  -5.074   1.471  0.00  0.00    -0.000 C 
ENDROOT
BRANCH   1   2
ATOM      2  CB  LYS A   1     -14.091  -5.631   2.726  0.00  0.00    +0.025 C 
BRANCH   2   3
ATOM      3  CA  LYS A   1     -14.579  -7.073   2.575  0.00  0.00    +0.133 C 
BRANCH   3   4
ATOM      4  N   LYS A   1     -15.215  -7.548   3.795  0.00  0.00    -0.239 NA
ATOM      5  H   LYS A   1     -14.803  -7.299   4.717  0.00  0.00    +0.142 HD
ENDBRANCH   3   4
BRANCH   3   6
ATOM      6  C   LYS A   1     -13.423  -8.001   2.236  0.00  0.00    +0.224 C 
ATOM      7  O   LYS A   1     -12.624  -8.343   3.108  0.00  0.00    -0.287 OA
ENDBRANCH   3   6
ENDBRANCH   2   3
ENDBRANCH   1   2
BRANCH   1   8
ATOM      8  CD  LYS A   1     -13.190  -3.577   1.574  0.00  0.00    -0.024 C 
BRANCH   8   9
ATOM      9  CE  LYS A   1     -12.118  -3.248   2.599  0.00  0.00    -0.086 C 
BRANCH   9  10
ATOM     10  NZ  LYS A   1     -11.849  -1.783   2.654  0.00  0.00    +0.380 N 
ATOM     11  HZ1 LYS A   1     -11.113  -1.593   3.363  0.00  0.00    -0.089 HD
ATOM     12  HZ2 LYS A   1     -12.722  -1.281   2.916  0.00  0.00    -0.089 HD
ATOM     13  HZ3 LYS A   1     -11.526  -1.456   1.721  0.00  0.00    -0.089 HD
ENDBRANCH   9  10
ENDBRANCH   8   9
ENDBRANCH   1   8
TORSDOF 7
REMARK  Name = ../refined-set-2016/4xu3/4xu3_pocket.pdb
REMARK  231 active torsions:
REMARK  status: ('A' for Active; 'I' for Inactive)
REMARK    1  A    between atoms: _1  and  _3
REMARK    2  A    between atoms: _3  and  _4
REMARK    3  A    between atoms: _3  and  _6
REMARK    4  A    between atoms: _6  and  _7
REMARK    5  A    between atoms: _10  and  _12
REMARK    6  A    between atoms: _12  and  _13
REMARK    7  A    between atoms: _15  and  _17
REMARK    8  A    between atoms: _17  and  _18
REMARK    9  A    between atoms: _17  and  _20
REMARK   10  A    between atoms: _20  and  _21
REMARK   11  A    between atoms: _23  and  _25
REMARK   12  A    between atoms: _25  and  _26
REMARK   13  A    between atoms: _25  and  _28
REMARK   14  A    between atoms: _28  and  _29
REMARK   15  A    between atoms: _32  and  _34
REMARK   16  A    between atoms: _34  and  _35
REMARK   17  A    between atoms: _34  and  _37
REMARK   18  A    between atoms: _37  and  _38
REMARK   19  A    between atoms: _43  and  _45
REMARK   20  A    between atoms: _45  and  _46
REMARK   21  A    between atoms: _49  and  _51
REMARK   22  A    between atoms: _51  and  _52
REMARK   23  A    between atoms: _51  and  _54
REMARK   24  A    between atoms: _54  and  _55
REMARK   25  A    between atoms: _58  and  _60
REMARK   26  A    between atoms: _60  and  _61
REMARK   27  A    between atoms: _60  and  _63
REMARK   28  A    between atoms: _63  and  _64
REMARK   29  A    between atoms: _67  and  _69
REMARK   30  A    between atoms: _69  and  _70
REMARK   31  A    between atoms: _69  and  _72
REMARK   32  A    between atoms: _72  and  _73
REMARK   33  A    between atoms: _76  and  _78
REMARK   34  A    between atoms: _78  and  _79
REMARK   35  A    between atoms: _82  and  _84
REMARK   36  A    between atoms: _84  and  _85
REMARK   37  A    between atoms: _84  and  _87
REMARK   38  A    between atoms: _87  and  _88
REMARK   39  A    between atoms: _88  and  _89
REMARK   40  A    between atoms: _94  and  _96
REMARK   41  A    between atoms: _96  and  _97
REMARK   42  A    between atoms: _96  and  _99
REMARK   43  A    between atoms: _99  and  _100
REMARK   44  A    between atoms: _103  and  _105
REMARK   45  A    between atoms: _105  and  _106
REMARK   46  A    between atoms: _109  and  _111
REMARK   47  A    between atoms: _111  and  _112
REMARK   48  A    between atoms: _114  and  _116
REMARK   49  A    between atoms: _116  and  _117
REMARK   50  A    between atoms: _116  and  _119
REMARK   51  A    between atoms: _119  and  _120
REMARK   52  A    between atoms: _120  and  _121
REMARK   53  A    between atoms: _121  and  _122
REMARK   54  A    between atoms: _131  and  _133
REMARK   55  A    between atoms: _133  and  _134
REMARK   56  A    between atoms: _136  and  _138
REMARK   57  A    between atoms: _138  and  _139
REMARK   58  A    between atoms: _138  and  _141
REMARK   59  A    between atoms: _141  and  _142
REMARK   60  A    between atoms: _142  and  _143
REMARK   61  A    between atoms: _143  and  _144
REMARK   62  A    between atoms: _153  and  _155
REMARK   63  A    between atoms: _155  and  _156
REMARK   64  A    between atoms: _155  and  _158
REMARK   65  A    between atoms: _158  and  _159
REMARK   66  A    between atoms: _164  and  _166
REMARK   67  A    between atoms: _166  and  _167
REMARK   68  A    between atoms: _169  and  _171
REMARK   69  A    between atoms: _171  and  _172
REMARK   70  A    between atoms: _171  and  _174
REMARK   71  A    between atoms: _174  and  _175
REMARK   72  A    between atoms: _175  and  _176
REMARK   73  A    between atoms: _176  and  _177
REMARK   74  A    between atoms: _186  and  _188
REMARK   75  A    between atoms: _188  and  _189
REMARK   76  A    between atoms: _191  and  _193
REMARK   77  A    between atoms: _193  and  _194
REMARK   78  A    between atoms: _193  and  _196
REMARK   79  A    between atoms: _196  and  _197
REMARK   80  A    between atoms: _207  and  _209
REMARK   81  A    between atoms: _209  and  _210
REMARK   82  A    between atoms: _213  and  _215
REMARK   83  A    between atoms: _215  and  _216
REMARK   84  A    between atoms: _219  and  _221
REMARK   85  A    between atoms: _221  and  _222
REMARK   86  A    between atoms: _221  and  _224
REMARK   87  A    between atoms: _224  and  _225
REMARK   88  A    between atoms: _228  and  _230
REMARK   89  A    between atoms: _230  and  _231
REMARK   90  A    between atoms: _230  and  _233
REMARK   91  A    between atoms: _233  and  _234
REMARK   92  A    between atoms: _234  and  _235
REMARK   93  A    between atoms: _240  and  _242
REMARK   94  A    between atoms: _242  and  _243
REMARK   95  A    between atoms: _242  and  _245
REMARK   96  A    between atoms: _245  and  _246
REMARK   97  A    between atoms: _249  and  _251
REMARK   98  A    between atoms: _251  and  _252
REMARK   99  A    between atoms: _251  and  _254
REMARK  100  A    between atoms: _254  and  _255
REMARK  101  A    between atoms: _258  and  _260
REMARK  102  A    between atoms: _260  and  _261
REMARK  103  A    between atoms: _260  and  _263
REMARK  104  A    between atoms: _263  and  _264
REMARK  105  A    between atoms: _267  and  _269
REMARK  106  A    between atoms: _269  and  _270
REMARK  107  A    between atoms: _269  and  _272
REMARK  108  A    between atoms: _272  and  _273
REMARK  109  A    between atoms: _275  and  _277
REMARK  110  A    between atoms: _277  and  _278
REMARK  111  A    between atoms: _277  and  _280
REMARK  112  A    between atoms: _283  and  _285
REMARK  113  A    between atoms: _285  and  _286
REMARK  114  A    between atoms: _285  and  _288
REMARK  115  A    between atoms: _288  and  _289
REMARK  116  A    between atoms: _289  and  _290
REMARK  117  A    between atoms: _290  and  _291
REMARK  118  A    between atoms: _291  and  _292
REMARK  119  A    between atoms: _297  and  _298
REMARK  120  A    between atoms: _303  and  _305
REMARK  121  A    between atoms: _305  and  _306
REMARK  122  A    between atoms: _305  and  _308
REMARK  123  A    between atoms: _308  and  _309
REMARK  124  A    between atoms: _314  and  _316
REMARK  125  A    between atoms: _316  and  _317
REMARK  126  A    between atoms: _316  and  _319
REMARK  127  A    between atoms: _319  and  _320
REMARK  128  A    between atoms: _323  and  _325
REMARK  129  A    between atoms: _325  and  _326
REMARK  130  A    between atoms: _325  and  _328
REMARK  131  A    between atoms: _331  and  _333
REMARK  132  A    between atoms: _333  and  _334
REMARK  133  A    between atoms: _336  and  _338
REMARK  134  A    between atoms: _338  and  _339
REMARK  135  A    between atoms: _338  and  _341
REMARK  136  A    between atoms: _341  and  _342
REMARK  137  A    between atoms: _342  and  _343
REMARK  138  A    between atoms: _343  and  _344
REMARK  139  A    between atoms: _344  and  _345
REMARK  140  A    between atoms: _349  and  _351
REMARK  141  A    between atoms: _351  and  _352
REMARK  142  A    between atoms: _351  and  _354
REMARK  143  A    between atoms: _354  and  _355
REMARK  144  A    between atoms: _358  and  _360
REMARK  145  A    between atoms: _360  and  _361
REMARK  146  A    between atoms: _364  and  _366
REMARK  147  A    between atoms: _366  and  _367
REMARK  148  A    between atoms: _369  and  _371
REMARK  149  A    between atoms: _371  and  _372
REMARK  150  A    between atoms: _371  and  _374
REMARK  151  A    between atoms: _374  and  _375
REMARK  152  A    between atoms: _378  and  _380
REMARK  153  A    between atoms: _380  and  _381
REMARK  154  A    between atoms: _380  and  _383
REMARK  155  A    between atoms: _383  and  _384
REMARK  156  A    between atoms: _387  and  _389
REMARK  157  A    between atoms: _389  and  _390
REMARK  158  A    between atoms: _393  and  _395
REMARK  159  A    between atoms: _395  and  _396
REMARK  160  A    between atoms: _395  and  _398
REMARK  161  A    between atoms: _398  and  _399
REMARK  162  A    between atoms: _399  and  _400
REMARK  163  A    between atoms: _403  and  _405
REMARK  164  A    between atoms: _405  and  _406
REMARK  165  A    between atoms: _405  and  _408
REMARK  166  A    between atoms: _411  and  _413
REMARK  167  A    between atoms: _413  and  _414
REMARK  168  A    between atoms: _413  and  _416
REMARK  169  A    between atoms: _416  and  _417
REMARK  170  A    between atoms: _420  and  _422
REMARK  171  A    between atoms: _422  and  _423
REMARK  172  A    between atoms: _425  and  _427
REMARK  173  A    between atoms: _427  and  _428
REMARK  174  A    between atoms: _427  and  _430
REMARK  175  A    between atoms: _433  and  _435
REMARK  176  A    between atoms: _435  and  _436
REMARK  177  A    between atoms: _438  and  _440
REMARK  178  A    between atoms: _440  and  _441
REMARK  179  A    between atoms: _440  and  _443
REMARK  180  A    between atoms: _443  and  _444
REMARK  181  A    between atoms: _447  and  _449
REMARK  182  A    between atoms: _449  and  _450
REMARK  183  A    between atoms: _449  and  _452
REMARK  184  A    between atoms: _452  and  _453
REMARK  185  A    between atoms: _458  and  _460
REMARK  186  A    between atoms: _460  and  _461
REMARK  187  A    between atoms: _460  and  _463
REMARK  188  A    between atoms: _466  and  _468
REMARK  189  A    between atoms: _468  and  _469
REMARK  190  A    between atoms: _468  and  _471
REMARK  191  A    between atoms: _471  and  _472
REMARK  192  A    between atoms: _472  and  _473
REMARK  193  A    between atoms: _478  and  _480
REMARK  194  A    between atoms: _480  and  _481
REMARK  195  A    between atoms: _485  and  _486
REMARK  196  A    between atoms: _491  and  _493
REMARK  197  A    between atoms: _493  and  _494
REMARK  198  A    between atoms: _493  and  _496
REMARK  199  A    between atoms: _496  and  _497
REMARK  200  A    between atoms: _497  and  _498
REMARK  201  A    between atoms: _501  and  _503
REMARK  202  A    between atoms: _503  and  _504
REMARK  203  A    between atoms: _503  and  _506
REMARK  204  A    between atoms: _509  and  _511
REMARK  205  A    between atoms: _511  and  _512
REMARK  206  A    between atoms: _511  and  _514
REMARK  207  A    between atoms: _514  and  _515
REMARK  208  A    between atoms: _519  and  _520
REMARK  209  A    between atoms: _525  and  _527
REMARK  210  A    between atoms: _527  and  _528
REMARK  211  A    between atoms: _527  and  _530
REMARK  212  A    between atoms: _530  and  _531
REMARK  213  A    between atoms: _534  and  _536
REMARK  214  A    between atoms: _536  and  _537
REMARK  215  A    between atoms: _540  and  _542
REMARK  216  A    between atoms: _542  and  _543
REMARK  217  A    between atoms: _542  and  _545
REMARK  218  A    between atoms: _545  and  _546
REMARK  219  A    between atoms: _549  and  _551
REMARK  220  A    between atoms: _551  and  _552
REMARK  221  A    between atoms: _551  and  _554
REMARK  222  A    between atoms: _554  and  _555
REMARK  223  A    between atoms: _557  and  _559
REMARK  224  A    between atoms: _559  and  _560
REMARK  225  A    between atoms: _562  and  _564
REMARK  226  A    between atoms: _564  and  _565
REMARK  227  A    between atoms: _564  and  _567
REMARK  228  A    between atoms: _567  and  _568
REMARK  229  A    between atoms: _571  and  _573
REMARK  230  A    between atoms: _573  and  _574
REMARK  231  A    between atoms: _573  and  _576
REMARK                            x       y       z     vdW  Elec       q    Type
REMARK                         _______ _______ _______ _____ _____    ______ ____
ROOT
ATOM      1  C   ASN A   2     -11.370  -9.685   6.265  0.00  0.00    +0.241 C 
ATOM      2  O   ASN A   2     -11.466  -9.837   7.484  0.00  0.00    -0.273 OA
ATOM      3  N   ASP A   3     -11.390  -8.491   5.683  0.00  0.00    -0.297 N 
ATOM      4  H   ASP A   3     -11.204  -8.417   4.662  0.00  0.00    +0.150 HD
ENDROOT
BRANCH   1   5
ATOM      5  CA  ASN A   2     -11.208 -10.889   5.344  0.00  0.00    +0.158 C 
BRANCH   5   7
ATOM      6  C   PRO A   1     -10.934 -11.095   2.942  0.00  0.00    +0.239 C 
ATOM      7  N   ASN A   2     -10.518 -10.585   4.096  0.00  0.00    -0.297 N 
ATOM      8  H   ASN A   2      -9.687  -9.959   4.109  0.00  0.00    +0.150 HD
ATOM      9  O   PRO A   1     -11.979 -11.737   2.829  0.00  0.00    -0.274 OA
BRANCH   6  11
ATOM     10  N   PRO A   1      -9.960  -9.438   1.312  0.00  0.00    -0.210 NA
ATOM     11  CA  PRO A   1     -10.058 -10.849   1.712  0.00  0.00    +0.149 C 
ATOM     12  CB  PRO A   1      -8.600 -11.230   2.017  0.00  0.00    +0.028 C 
ATOM     13  CG  PRO A   1      -7.764 -10.163   1.376  0.00  0.00    +0.021 C 
ATOM     14  CD  PRO A   1      -8.592  -8.924   1.480  0.00  0.00    +0.089 C 
ENDBRANCH   6  11
ENDBRANCH   5   7
BRANCH   5  15
ATOM     15  CB  ASN A   2     -10.464 -12.000   6.080  0.00  0.00    +0.114 C 
BRANCH  15  16
ATOM     16  CG  ASN A   2      -8.963 -11.820   6.024  0.00  0.00    +0.222 C 
ATOM     17  ND2 ASN A   2      -8.228 -12.914   6.187  0.00  0.00    -0.329 N 
ATOM     18 HD21 ASN A   2      -8.690 -13.831   6.350  0.00  0.00    +0.145 HD
ATOM     19 HD22 ASN A   2      -7.190 -12.853   6.152  0.00  0.00    +0.145 HD
ATOM     20  OD1 ASN A   2      -8.467 -10.708   5.828  0.00  0.00    -0.275 OA
ENDBRANCH  15  16
ENDBRANCH   5  15
ENDBRANCH   1   5
BRANCH   3  21
ATOM     21  CA  ASP A   3     -11.668  -7.284   6.449  0.00  0.00    +0.160 C 
BRANCH  21  22
ATOM     22  C   ASP A   3     -13.080  -7.333   7.016  0.00  0.00    +0.241 C 
ATOM     23  N   VAL A   4     -13.191  -7.252   8.337  0.00  0.00    -0.298 N 
ATOM     24  H   VAL A   4     -12.334  -7.267   8.927  0.00  0.00    +0.150 HD
ATOM     25  O   ASP A   3     -14.052  -7.457   6.271  0.00  0.00    -0.273 OA
BRANCH  23  26
ATOM     26  CA  VAL A   4     -14.497  -7.142   8.969  0.00  0.00    +0.137 C 
BRANCH  26  27
ATOM     27  CB  VAL A   4     -14.501  -7.722  10.396  0.00  0.00    +0.026 C 
ATOM     28  CG2 VAL A   4     -15.870  -7.550  11.034  0.00  0.00    +0.002 C 
ATOM     29  CG1 VAL A   4     -14.101  -9.190  10.373  0.00  0.00    +0.002 C 
ENDBRANCH  26  27
BRANCH  26  30
ATOM     30  C   VAL A   4     -14.903  -5.674   9.002  0.00  0.00    +0.227 C 
ATOM     31  O   VAL A   4     -14.328  -4.880   9.748  0.00  0.00    -0.286 OA
ENDBRANCH  26  30
ENDBRANCH  23  26
ENDBRANCH  21  22
BRANCH  21  32
ATOM     32  CB  ASP A   3     -11.497  -6.036   5.580  0.00  0.00    +0.143 C 
BRANCH  32  33
ATOM     33  CG  ASP A   3     -10.058  -5.577   5.490  0.00  0.00    +0.367 C 
ATOM     34  OD2 ASP A   3      -9.151  -6.389   5.771  0.00  0.00    -0.246 OA
ATOM     35  OD1 ASP A   3      -9.834  -4.402   5.133  0.00  0.00    -0.246 OA
ENDBRANCH  32  33
ENDBRANCH  21  32
ENDBRANCH   3  21
TORSDOF 12
REMARK  Name = ../refined-set-2016/4xu3/4xu3_pocket.pdb
REMARK  231 active torsions:
REMARK  status: ('A' for Active; 'I' for Inactive)
REMARK    1  A    between atoms: _1  and  _3
REMARK    2  A    between atoms: _3  and  _4
REMARK    3  A    between atoms: _3  and  _6
REMARK    4  A    between atoms: _6  and  _7
REMARK    5  A    between atoms: _10  and  _12
REMARK    6  A    between atoms: _12  and  _13
REMARK    7  A    between atoms: _15  and  _17
REMARK    8  A    between atoms: _17  and  _18
REMARK    9  A    between atoms: _17  and  _20
REMARK   10  A    between atoms: _20  and  _21
REMARK   11  A    between atoms: _23  and  _25
REMARK   12  A    between atoms: _25  and  _26
REMARK   13  A    between atoms: _25  and  _28
REMARK   14  A    between atoms: _28  and  _29
REMARK   15  A    between atoms: _32  and  _34
REMARK   16  A    between atoms: _34  and  _35
REMARK   17  A    between atoms: _34  and  _37
REMARK   18  A    between atoms: _37  and  _38
REMARK   19  A    between atoms: _43  and  _45
REMARK   20  A    between atoms: _45  and  _46
REMARK   21  A    between atoms: _49  and  _51
REMARK   22  A    between atoms: _51  and  _52
REMARK   23  A    between atoms: _51  and  _54
REMARK   24  A    between atoms: _54  and  _55
REMARK   25  A    between atoms: _58  and  _60
REMARK   26  A    between atoms: _60  and  _61
REMARK   27  A    between atoms: _60  and  _63
REMARK   28  A    between atoms: _63  and  _64
REMARK   29  A    between atoms: _67  and  _69
REMARK   30  A    between atoms: _69  and  _70
REMARK   31  A    between atoms: _69  and  _72
REMARK   32  A    between atoms: _72  and  _73
REMARK   33  A    between atoms: _76  and  _78
REMARK   34  A    between atoms: _78  and  _79
REMARK   35  A    between atoms: _82  and  _84
REMARK   36  A    between atoms: _84  and  _85
REMARK   37  A    between atoms: _84  and  _87
REMARK   38  A    between atoms: _87  and  _88
REMARK   39  A    between atoms: _88  and  _89
REMARK   40  A    between atoms: _94  and  _96
REMARK   41  A    between atoms: _96  and  _97
REMARK   42  A    between atoms: _96  and  _99
REMARK   43  A    between atoms: _99  and  _100
REMARK   44  A    between atoms: _103  and  _105
REMARK   45  A    between atoms: _105  and  _106
REMARK   46  A    between atoms: _109  and  _111
REMARK   47  A    between atoms: _111  and  _112
REMARK   48  A    between atoms: _114  and  _116
REMARK   49  A    between atoms: _116  and  _117
REMARK   50  A    between atoms: _116  and  _119
REMARK   51  A    between atoms: _119  and  _120
REMARK   52  A    between atoms: _120  and  _121
REMARK   53  A    between atoms: _121  and  _122
REMARK   54  A    between atoms: _131  and  _133
REMARK   55  A    between atoms: _133  and  _134
REMARK   56  A    between atoms: _136  and  _138
REMARK   57  A    between atoms: _138  and  _139
REMARK   58  A    between atoms: _138  and  _141
REMARK   59  A    between atoms: _141  and  _142
REMARK   60  A    between atoms: _142  and  _143
REMARK   61  A    between atoms: _143  and  _144
REMARK   62  A    between atoms: _153  and  _155
REMARK   63  A    between atoms: _155  and  _156
REMARK   64  A    between atoms: _155  and  _158
REMARK   65  A    between atoms: _158  and  _159
REMARK   66  A    between atoms: _164  and  _166
REMARK   67  A    between atoms: _166  and  _167
REMARK   68  A    between atoms: _169  and  _171
REMARK   69  A    between atoms: _171  and  _172
REMARK   70  A    between atoms: _171  and  _174
REMARK   71  A    between atoms: _174  and  _175
REMARK   72  A    between atoms: _175  and  _176
REMARK   73  A    between atoms: _176  and  _177
REMARK   74  A    between atoms: _186  and  _188
REMARK   75  A    between atoms: _188  and  _189
REMARK   76  A    between atoms: _191  and  _193
REMARK   77  A    between atoms: _193  and  _194
REMARK   78  A    between atoms: _193  and  _196
REMARK   79  A    between atoms: _196  and  _197
REMARK   80  A    between atoms: _207  and  _209
REMARK   81  A    between atoms: _209  and  _210
REMARK   82  A    between atoms: _213  and  _215
REMARK   83  A    between atoms: _215  and  _216
REMARK   84  A    between atoms: _219  and  _221
REMARK   85  A    between atoms: _221  and  _222
REMARK   86  A    between atoms: _221  and  _224
REMARK   87  A    between atoms: _224  and  _225
REMARK   88  A    between atoms: _228  and  _230
REMARK   89  A    between atoms: _230  and  _231
REMARK   90  A    between atoms: _230  and  _233
REMARK   91  A    between atoms: _233  and  _234
REMARK   92  A    between atoms: _234  and  _235
REMARK   93  A    between atoms: _240  and  _242
REMARK   94  A    between atoms: _242  and  _243
REMARK   95  A    between atoms: _242  and  _245
REMARK   96  A    between atoms: _245  and  _246
REMARK   97  A    between atoms: _249  and  _251
REMARK   98  A    between atoms: _251  and  _252
REMARK   99  A    between atoms: _251  and  _254
REMARK  100  A    between atoms: _254  and  _255
REMARK  101  A    between atoms: _258  and  _260
REMARK  102  A    between atoms: _260  and  _261
REMARK  103  A    between atoms: _260  and  _263
REMARK  104  A    between atoms: _263  and  _264
REMARK  105  A    between atoms: _267  and  _269
REMARK  106  A    between atoms: _269  and  _270
REMARK  107  A    between atoms: _269  and  _272
REMARK  108  A    between atoms: _272  and  _273
REMARK  109  A    between atoms: _275  and  _277
REMARK  110  A    between atoms: _277  and  _278
REMARK  111  A    between atoms: _277  and  _280
REMARK  112  A    between atoms: _283  and  _285
REMARK  113  A    between atoms: _285  and  _286
REMARK  114  A    between atoms: _285  and  _288
REMARK  115  A    between atoms: _288  and  _289
REMARK  116  A    between atoms: _289  and  _290
REMARK  117  A    between atoms: _290  and  _291
REMARK  118  A    between atoms: _291  and  _292
REMARK  119  A    between atoms: _297  and  _298
REMARK  120  A    between atoms: _303  and  _305
REMARK  121  A    between atoms: _305  and  _306
REMARK  122  A    between atoms: _305  and  _308
REMARK  123  A    between atoms: _308  and  _309
REMARK  124  A    between atoms: _314  and  _316
REMARK  125  A    between atoms: _316  and  _317
REMARK  126  A    between atoms: _316  and  _319
REMARK  127  A    between atoms: _319  and  _320
REMARK  128  A    between atoms: _323  and  _325
REMARK  129  A    between atoms: _325  and  _326
REMARK  130  A    between atoms: _325  and  _328
REMARK  131  A    between atoms: _331  and  _333
REMARK  132  A    between atoms: _333  and  _334
REMARK  133  A    between atoms: _336  and  _338
REMARK  134  A    between atoms: _338  and  _339
REMARK  135  A    between atoms: _338  and  _341
REMARK  136  A    between atoms: _341  and  _342
REMARK  137  A    between atoms: _342  and  _343
REMARK  138  A    between atoms: _343  and  _344
REMARK  139  A    between atoms: _344  and  _345
REMARK  140  A    between atoms: _349  and  _351
REMARK  141  A    between atoms: _351  and  _352
REMARK  142  A    between atoms: _351  and  _354
REMARK  143  A    between atoms: _354  and  _355
REMARK  144  A    between atoms: _358  and  _360
REMARK  145  A    between atoms: _360  and  _361
REMARK  146  A    between atoms: _364  and  _366
REMARK  147  A    between atoms: _366  and  _367
REMARK  148  A    between atoms: _369  and  _371
REMARK  149  A    between atoms: _371  and  _372
REMARK  150  A    between atoms: _371  and  _374
REMARK  151  A    between atoms: _374  and  _375
REMARK  152  A    between atoms: _378  and  _380
REMARK  153  A    between atoms: _380  and  _381
REMARK  154  A    between atoms: _380  and  _383
REMARK  155  A    between atoms: _383  and  _384
REMARK  156  A    between atoms: _387  and  _389
REMARK  157  A    between atoms: _389  and  _390
REMARK  158  A    between atoms: _393  and  _395
REMARK  159  A    between atoms: _395  and  _396
REMARK  160  A    between atoms: _395  and  _398
REMARK  161  A    between atoms: _398  and  _399
REMARK  162  A    between atoms: _399  and  _400
REMARK  163  A    between atoms: _403  and  _405
REMARK  164  A    between atoms: _405  and  _406
REMARK  165  A    between atoms: _405  and  _408
REMARK  166  A    between atoms: _411  and  _413
REMARK  167  A    between atoms: _413  and  _414
REMARK  168  A    between atoms: _413  and  _416
REMARK  169  A    between atoms: _416  and  _417
REMARK  170  A    between atoms: _420  and  _422
REMARK  171  A    between atoms: _422  and  _423
REMARK  172  A    between atoms: _425  and  _427
REMARK  173  A    between atoms: _427  and  _428
REMARK  174  A    between atoms: _427  and  _430
REMARK  175  A    between atoms: _433  and  _435
REMARK  176  A    between atoms: _435  and  _436
REMARK  177  A    between atoms: _438  and  _440
REMARK  178  A    between atoms: _440  and  _441
REMARK  179  A    between atoms: _440  and  _443
REMARK  180  A    between atoms: _443  and  _444
REMARK  181  A    between atoms: _447  and  _449
REMARK  182  A    between atoms: _449  and  _450
REMARK  183  A    between atoms: _449  and  _452
REMARK  184  A    between atoms: _452  and  _453
REMARK  185  A    between atoms: _458  and  _460
REMARK  186  A    between atoms: _460  and  _461
REMARK  187  A    between atoms: _460  and  _463
REMARK  188  A    between atoms: _466  and  _468
REMARK  189  A    between atoms: _468  and  _469
REMARK  190  A    between atoms: _468  and  _471
REMARK  191  A    between atoms: _471  and  _472
REMARK  192  A    between atoms: _472  and  _473
REMARK  193  A    between atoms: _478  and  _480
REMARK  194  A    between atoms: _480  and  _481
REMARK  195  A    between atoms: _485  and  _486
REMARK  196  A    between atoms: _491  and  _493
REMARK  197  A    between atoms: _493  and  _494
REMARK  198  A    between atoms: _493  and  _496
REMARK  199  A    between atoms: _496  and  _497
REMARK  200  A    between atoms: _497  and  _498
REMARK  201  A    between atoms: _501  and  _503
REMARK  202  A    between atoms: _503  and  _504
REMARK  203  A    between atoms: _503  and  _506
REMARK  204  A    between atoms: _509  and  _511
REMARK  205  A    between atoms: _511  and  _512
REMARK  206  A    between atoms: _511  and  _514
REMARK  207  A    between atoms: _514  and  _515
REMARK  208  A    between atoms: _519  and  _520
REMARK  209  A    between atoms: _525  and  _527
REMARK  210  A    between atoms: _527  and  _528
REMARK  211  A    between atoms: _527  and  _530
REMARK  212  A    between atoms: _530  and  _531
REMARK  213  A    between atoms: _534  and  _536
REMARK  214  A    between atoms: _536  and  _537
REMARK  215  A    between atoms: _540  and  _542
REMARK  216  A    between atoms: _542  and  _543
REMARK  217  A    between atoms: _542  and  _545
REMARK  218  A    between atoms: _545  and  _546
REMARK  219  A    between atoms: _549  and  _551
REMARK  220  A    between atoms: _551  and  _552
REMARK  221  A    between atoms: _551  and  _554
REMARK  222  A    between atoms: _554  and  _555
REMARK  223  A    between atoms: _557  and  _559
REMARK  224  A    between atoms: _559  and  _560
REMARK  225  A    between atoms: _562  and  _564
REMARK  226  A    between atoms: _564  and  _565
REMARK  227  A    between atoms: _564  and  _567
REMARK  228  A    between atoms: _567  and  _568
REMARK  229  A    between atoms: _571  and  _573
REMARK  230  A    between atoms: _573  and  _574
REMARK  231  A    between atoms: _573  and  _576
REMARK                            x       y       z     vdW  Elec       q    Type
REMARK                         _______ _______ _______ _____ _____    ______ ____
ROOT
ATOM      1  CA  GLY A   5      -8.111  -7.241  10.581  0.00  0.00    +0.176 C 
ENDROOT
BRANCH   1   3
ATOM      2  C   ALA A   4     -10.298  -6.501  11.353  0.00  0.00    +0.241 C 
ATOM      3  N   GLY A   5      -9.044  -6.852  11.624  0.00  0.00    -0.295 N 
ATOM      4  H   GLY A   5      -8.722  -6.848  12.613  0.00  0.00    +0.150 HD
ATOM      5  O   ALA A   4     -10.747  -6.449  10.209  0.00  0.00    -0.273 OA
BRANCH   2   6
ATOM      6  CA  ALA A   4     -11.175  -6.166  12.555  0.00  0.00    +0.149 C 
ATOM      7  CB  ALA A   4     -11.839  -7.432  13.084  0.00  0.00    +0.031 C 
BRANCH   6  10
ATOM      8  C   LEU A   3     -12.694  -4.370  13.186  0.00  0.00    +0.241 C 
ATOM      9  O   LEU A   3     -12.336  -4.423  14.363  0.00  0.00    -0.273 OA
ATOM     10  N   ALA A   4     -12.185  -5.158  12.242  0.00  0.00    -0.297 N 
ATOM     11  H   ALA A   4     -12.513  -5.054  11.261  0.00  0.00    +0.150 HD
BRANCH   8  12
ATOM     12  CA  LEU A   3     -13.760  -3.369  12.743  0.00  0.00    +0.149 C 
BRANCH  12  15
ATOM     13  C   LYS A   2     -12.648  -1.930  11.114  0.00  0.00    +0.241 C 
ATOM     14  O   LYS A   2     -11.939  -1.404  11.973  0.00  0.00    -0.273 OA
ATOM     15  N   LEU A   3     -13.526  -2.891  11.384  0.00  0.00    -0.297 N 
ATOM     16  H   LEU A   3     -14.063  -3.316  10.602  0.00  0.00    +0.150 HD
BRANCH  13  17
ATOM     17  CA  LYS A   2     -12.560  -1.498   9.654  0.00  0.00    +0.149 C 
BRANCH  17  19
ATOM     18  C   GLY A   1     -14.516  -0.088   9.362  0.00  0.00    +0.240 C 
ATOM     19  N   LYS A   2     -13.196  -0.201   9.462  0.00  0.00    -0.297 N 
ATOM     20  H   LYS A   2     -12.605   0.653   9.402  0.00  0.00    +0.150 HD
ATOM     21  O   GLY A   1     -15.274  -1.058   9.409  0.00  0.00    -0.274 OA
BRANCH  18  22
ATOM     22  CA  GLY A   1     -15.059   1.317   9.184  0.00  0.00    +0.169 C 
BRANCH  22  23
ATOM     23  N   GLY A   1     -16.311   1.363   8.451  0.00  0.00    -0.236 NA
ATOM     24  H   GLY A   1     -17.208   1.366   8.978  0.00  0.00    +0.142 HD
ENDBRANCH  22  23
ENDBRANCH  18  22
ENDBRANCH  17  19
BRANCH  17  25
ATOM     25  CB  LYS A   2     -11.102  -1.456   9.196  0.00  0.00    +0.029 C 
BRANCH  25  26
ATOM     26  CG  LYS A   2     -10.428  -2.818   9.170  0.00  0.00    +0.000 C 
BRANCH  26  27
ATOM     27  CD  LYS A   2      -9.097  -2.764   8.441  0.00  0.00    -0.024 C 
BRANCH  27  28
ATOM     28  CE  LYS A   2      -8.455  -4.141   8.371  0.00  0.00    -0.086 C 
BRANCH  28  29
ATOM     29  NZ  LYS A   2      -7.211  -4.136   7.555  0.00  0.00    +0.380 N 
ATOM     30  HZ1 LYS A   2      -6.524  -3.478   7.976  0.00  0.00    -0.089 HD
ATOM     31  HZ2 LYS A   2      -6.807  -5.094   7.535  0.00  0.00    -0.089 HD
ATOM     32  HZ3 LYS A   2      -7.435  -3.832   6.586  0.00  0.00    -0.089 HD
ENDBRANCH  28  29
ENDBRANCH  27  28
ENDBRANCH  26  27
ENDBRANCH  25  26
ENDBRANCH  17  25
ENDBRANCH  13  17
ENDBRANCH  12  15
BRANCH  12  33
ATOM     33  CB  LEU A   3     -15.154  -3.998  12.847  0.00  0.00    +0.029 C 
BRANCH  33  34
ATOM     34  CG  LEU A   3     -15.588  -4.580  14.194  0.00  0.00    +0.002 C 
ATOM     35  CD2 LEU A   3     -15.484  -3.538  15.296  0.00  0.00    +0.000 C 
ATOM     36  CD1 LEU A   3     -17.007  -5.122  14.105  0.00  0.00    +0.000 C 
ENDBRANCH  33  34
ENDBRANCH  12  33
ENDBRANCH   8  12
ENDBRANCH   6  10
ENDBRANCH   2   6
ENDBRANCH   1   3
BRANCH   1  37
ATOM     37  C   GLY A   5      -7.536  -8.624  10.826  0.00  0.00    +0.243 C 
ATOM     38  O   GLY A   5      -7.272  -8.997  11.969  0.00  0.00    -0.273 OA
ATOM     39  N   ILE A   6      -7.339  -9.384   9.750  0.00  0.00    -0.297 N 
ATOM     40  H   ILE A   6      -7.545  -8.990   8.810  0.00  0.00    +0.150 HD
BRANCH  39  41
ATOM     41  CA  ILE A   6      -6.843 -10.754   9.850  0.00  0.00    +0.149 C 
BRANCH  41  42
ATOM     42  C   ILE A   6      -5.522 -10.938   9.103  0.00  0.00    +0.241 C 
ATOM     43  N   LEU A   7      -4.592 -11.671   9.710  0.00  0.00    -0.297 N 
ATOM     44  H   LEU A   7      -4.779 -12.040  10.664  0.00  0.00    +0.150 HD
ATOM     45  O   ILE A   6      -5.351 -10.429   7.995  0.00  0.00    -0.273 OA
BRANCH  43  46
ATOM     46  CA  LEU A   7      -3.314 -11.969   9.068  0.00  0.00    +0.149 C 
BRANCH  46  47
ATOM     47  C   LEU A   7      -2.958 -13.448   9.182  0.00  0.00    +0.241 C 
ATOM     48  O   LEU A   7      -2.834 -13.985  10.283  0.00  0.00    -0.273 OA
ATOM     49  N   ALA A   8      -2.790 -14.101   8.037  0.00  0.00    -0.297 N 
ATOM     50  H   ALA A   8      -2.926 -13.593   7.140  0.00  0.00    +0.150 HD
BRANCH  49  51
ATOM     51  CA  ALA A   8      -2.419 -15.512   8.006  0.00  0.00    +0.149 C 
ATOM     52  CB  ALA A   8      -3.387 -16.299   7.138  0.00  0.00    +0.031 C 
BRANCH  51  53
ATOM     53  C   ALA A   8      -0.991 -15.685   7.501  0.00  0.00    +0.241 C 
ATOM     54  N   GLU A   9      -0.133 -16.251   8.344  0.00  0.00    -0.298 N 
ATOM     55  H   GLU A   9      -0.466 -16.555   9.281  0.00  0.00    +0.150 HD
ATOM     56  O   ALA A   8      -0.672 -15.316   6.371  0.00  0.00    -0.273 OA
BRANCH  54  57
ATOM     57  CA  GLU A   9       1.263 -16.454   7.983  0.00  0.00    +0.137 C 
BRANCH  57  58
ATOM     58  C   GLU A   9       1.637 -17.931   8.035  0.00  0.00    +0.227 C 
ATOM     59  O   GLU A   9       1.135 -18.682   8.871  0.00  0.00    -0.286 OA
ENDBRANCH  57  58
BRANCH  57  60
ATOM     60  CB  GLU A   9       2.174 -15.640   8.899  0.00  0.00    +0.039 C 
BRANCH  60  61
ATOM     61  CG  GLU A   9       1.950 -14.142   8.794  0.00  0.00    +0.116 C 
BRANCH  61  62
ATOM     62  CD  GLU A   9       2.917 -13.347   9.645  0.00  0.00    +0.365 C 
ATOM     63  OE2 GLU A   9       2.624 -13.138  10.839  0.00  0.00    -0.246 OA
ATOM     64  OE1 GLU A   9       3.970 -12.930   9.118  0.00  0.00    -0.246 OA
ENDBRANCH  61  62
ENDBRANCH  60  61
ENDBRANCH  57  60
ENDBRANCH  54  57
ENDBRANCH  51  53
ENDBRANCH  49  51
ENDBRANCH  46  47
BRANCH  46  65
ATOM     65  CB  LEU A   7      -2.195 -11.121   9.674  0.00  0.00    +0.029 C 
BRANCH  65  66
ATOM     66  CG  LEU A   7      -0.806 -11.354   9.072  0.00  0.00    +0.002 C 
ATOM     67  CD2 LEU A   7       0.265 -10.615   9.859  0.00  0.00    +0.000 C 
ATOM     68  CD1 LEU A   7      -0.778 -10.945   7.606  0.00  0.00    +0.000 C 
ENDBRANCH  65  66
ENDBRANCH  46  65
ENDBRANCH  43  46
ENDBRANCH  41  42
BRANCH  41  69
ATOM     69  CB  ILE A   6      -7.867 -11.767   9.290  0.00  0.00    +0.027 C 
ATOM     70  CG2 ILE A   6      -7.483 -13.192   9.676  0.00  0.00    +0.002 C 
BRANCH  69  71
ATOM     71  CG1 ILE A   6      -9.286 -11.428   9.756  0.00  0.00    +0.002 C 
ATOM     72  CD1 ILE A   6      -9.503 -11.596  11.240  0.00  0.00    +0.000 C 
ENDBRANCH  69  71
ENDBRANCH  41  69
ENDBRANCH  39  41
ENDBRANCH   1  37
TORSDOF 32
REMARK  Name = ../refined-set-2016/4xu3/4xu3_pocket.pdb
REMARK  231 active torsions:
REMARK  status: ('A' for Active; 'I' for Inactive)
REMARK    1  A    between atoms: _1  and  _3
REMARK    2  A    between atoms: _3  and  _4
REMARK    3  A    between atoms: _3  and  _6
REMARK    4  A    between atoms: _6  and  _7
REMARK    5  A    between atoms: _10  and  _12
REMARK    6  A    between atoms: _12  and  _13
REMARK    7  A    between atoms: _15  and  _17
REMARK    8  A    between atoms: _17  and  _18
REMARK    9  A    between atoms: _17  and  _20
REMARK   10  A    between atoms: _20  and  _21
REMARK   11  A    between atoms: _23  and  _25
REMARK   12  A    between atoms: _25  and  _26
REMARK   13  A    between atoms: _25  and  _28
REMARK   14  A    between atoms: _28  and  _29
REMARK   15  A    between atoms: _32  and  _34
REMARK   16  A    between atoms: _34  and  _35
REMARK   17  A    between atoms: _34  and  _37
REMARK   18  A    between atoms: _37  and  _38
REMARK   19  A    between atoms: _43  and  _45
REMARK   20  A    between atoms: _45  and  _46
REMARK   21  A    between atoms: _49  and  _51
REMARK   22  A    between atoms: _51  and  _52
REMARK   23  A    between atoms: _51  and  _54
REMARK   24  A    between atoms: _54  and  _55
REMARK   25  A    between atoms: _58  and  _60
REMARK   26  A    between atoms: _60  and  _61
REMARK   27  A    between atoms: _60  and  _63
REMARK   28  A    between atoms: _63  and  _64
REMARK   29  A    between atoms: _67  and  _69
REMARK   30  A    between atoms: _69  and  _70
REMARK   31  A    between atoms: _69  and  _72
REMARK   32  A    between atoms: _72  and  _73
REMARK   33  A    between atoms: _76  and  _78
REMARK   34  A    between atoms: _78  and  _79
REMARK   35  A    between atoms: _82  and  _84
REMARK   36  A    between atoms: _84  and  _85
REMARK   37  A    between atoms: _84  and  _87
REMARK   38  A    between atoms: _87  and  _88
REMARK   39  A    between atoms: _88  and  _89
REMARK   40  A    between atoms: _94  and  _96
REMARK   41  A    between atoms: _96  and  _97
REMARK   42  A    between atoms: _96  and  _99
REMARK   43  A    between atoms: _99  and  _100
REMARK   44  A    between atoms: _103  and  _105
REMARK   45  A    between atoms: _105  and  _106
REMARK   46  A    between atoms: _109  and  _111
REMARK   47  A    between atoms: _111  and  _112
REMARK   48  A    between atoms: _114  and  _116
REMARK   49  A    between atoms: _116  and  _117
REMARK   50  A    between atoms: _116  and  _119
REMARK   51  A    between atoms: _119  and  _120
REMARK   52  A    between atoms: _120  and  _121
REMARK   53  A    between atoms: _121  and  _122
REMARK   54  A    between atoms: _131  and  _133
REMARK   55  A    between atoms: _133  and  _134
REMARK   56  A    between atoms: _136  and  _138
REMARK   57  A    between atoms: _138  and  _139
REMARK   58  A    between atoms: _138  and  _141
REMARK   59  A    between atoms: _141  and  _142
REMARK   60  A    between atoms: _142  and  _143
REMARK   61  A    between atoms: _143  and  _144
REMARK   62  A    between atoms: _153  and  _155
REMARK   63  A    between atoms: _155  and  _156
REMARK   64  A    between atoms: _155  and  _158
REMARK   65  A    between atoms: _158  and  _159
REMARK   66  A    between atoms: _164  and  _166
REMARK   67  A    between atoms: _166  and  _167
REMARK   68  A    between atoms: _169  and  _171
REMARK   69  A    between atoms: _171  and  _172
REMARK   70  A    between atoms: _171  and  _174
REMARK   71  A    between atoms: _174  and  _175
REMARK   72  A    between atoms: _175  and  _176
REMARK   73  A    between atoms: _176  and  _177
REMARK   74  A    between atoms: _186  and  _188
REMARK   75  A    between atoms: _188  and  _189
REMARK   76  A    between atoms: _191  and  _193
REMARK   77  A    between atoms: _193  and  _194
REMARK   78  A    between atoms: _193  and  _196
REMARK   79  A    between atoms: _196  and  _197
REMARK   80  A    between atoms: _207  and  _209
REMARK   81  A    between atoms: _209  and  _210
REMARK   82  A    between atoms: _213  and  _215
REMARK   83  A    between atoms: _215  and  _216
REMARK   84  A    between atoms: _219  and  _221
REMARK   85  A    between atoms: _221  and  _222
REMARK   86  A    between atoms: _221  and  _224
REMARK   87  A    between atoms: _224  and  _225
REMARK   88  A    between atoms: _228  and  _230
REMARK   89  A    between atoms: _230  and  _231
REMARK   90  A    between atoms: _230  and  _233
REMARK   91  A    between atoms: _233  and  _234
REMARK   92  A    between atoms: _234  and  _235
REMARK   93  A    between atoms: _240  and  _242
REMARK   94  A    between atoms: _242  and  _243
REMARK   95  A    between atoms: _242  and  _245
REMARK   96  A    between atoms: _245  and  _246
REMARK   97  A    between atoms: _249  and  _251
REMARK   98  A    between atoms: _251  and  _252
REMARK   99  A    between atoms: _251  and  _254
REMARK  100  A    between atoms: _254  and  _255
REMARK  101  A    between atoms: _258  and  _260
REMARK  102  A    between atoms: _260  and  _261
REMARK  103  A    between atoms: _260  and  _263
REMARK  104  A    between atoms: _263  and  _264
REMARK  105  A    between atoms: _267  and  _269
REMARK  106  A    between atoms: _269  and  _270
REMARK  107  A    between atoms: _269  and  _272
REMARK  108  A    between atoms: _272  and  _273
REMARK  109  A    between atoms: _275  and  _277
REMARK  110  A    between atoms: _277  and  _278
REMARK  111  A    between atoms: _277  and  _280
REMARK  112  A    between atoms: _283  and  _285
REMARK  113  A    between atoms: _285  and  _286
REMARK  114  A    between atoms: _285  and  _288
REMARK  115  A    between atoms: _288  and  _289
REMARK  116  A    between atoms: _289  and  _290
REMARK  117  A    between atoms: _290  and  _291
REMARK  118  A    between atoms: _291  and  _292
REMARK  119  A    between atoms: _297  and  _298
REMARK  120  A    between atoms: _303  and  _305
REMARK  121  A    between atoms: _305  and  _306
REMARK  122  A    between atoms: _305  and  _308
REMARK  123  A    between atoms: _308  and  _309
REMARK  124  A    between atoms: _314  and  _316
REMARK  125  A    between atoms: _316  and  _317
REMARK  126  A    between atoms: _316  and  _319
REMARK  127  A    between atoms: _319  and  _320
REMARK  128  A    between atoms: _323  and  _325
REMARK  129  A    between atoms: _325  and  _326
REMARK  130  A    between atoms: _325  and  _328
REMARK  131  A    between atoms: _331  and  _333
REMARK  132  A    between atoms: _333  and  _334
REMARK  133  A    between atoms: _336  and  _338
REMARK  134  A    between atoms: _338  and  _339
REMARK  135  A    between atoms: _338  and  _341
REMARK  136  A    between atoms: _341  and  _342
REMARK  137  A    between atoms: _342  and  _343
REMARK  138  A    between atoms: _343  and  _344
REMARK  139  A    between atoms: _344  and  _345
REMARK  140  A    between atoms: _349  and  _351
REMARK  141  A    between atoms: _351  and  _352
REMARK  142  A    between atoms: _351  and  _354
REMARK  143  A    between atoms: _354  and  _355
REMARK  144  A    between atoms: _358  and  _360
REMARK  145  A    between atoms: _360  and  _361
REMARK  146  A    between atoms: _364  and  _366
REMARK  147  A    between atoms: _366  and  _367
REMARK  148  A    between atoms: _369  and  _371
REMARK  149  A    between atoms: _371  and  _372
REMARK  150  A    between atoms: _371  and  _374
REMARK  151  A    between atoms: _374  and  _375
REMARK  152  A    between atoms: _378  and  _380
REMARK  153  A    between atoms: _380  and  _381
REMARK  154  A    between atoms: _380  and  _383
REMARK  155  A    between atoms: _383  and  _384
REMARK  156  A    between atoms: _387  and  _389
REMARK  157  A    between atoms: _389  and  _390
REMARK  158  A    between atoms: _393  and  _395
REMARK  159  A    between atoms: _395  and  _396
REMARK  160  A    between atoms: _395  and  _398
REMARK  161  A    between atoms: _398  and  _399
REMARK  162  A    between atoms: _399  and  _400
REMARK  163  A    between atoms: _403  and  _405
REMARK  164  A    between atoms: _405  and  _406
REMARK  165  A    between atoms: _405  and  _408
REMARK  166  A    between atoms: _411  and  _413
REMARK  167  A    between atoms: _413  and  _414
REMARK  168  A    between atoms: _413  and  _416
REMARK  169  A    between atoms: _416  and  _417
REMARK  170  A    between atoms: _420  and  _422
REMARK  171  A    between atoms: _422  and  _423
REMARK  172  A    between atoms: _425  and  _427
REMARK  173  A    between atoms: _427  and  _428
REMARK  174  A    between atoms: _427  and  _430
REMARK  175  A    between atoms: _433  and  _435
REMARK  176  A    between atoms: _435  and  _436
REMARK  177  A    between atoms: _438  and  _440
REMARK  178  A    between atoms: _440  and  _441
REMARK  179  A    between atoms: _440  and  _443
REMARK  180  A    between atoms: _443  and  _444
REMARK  181  A    between atoms: _447  and  _449
REMARK  182  A    between atoms: _449  and  _450
REMARK  183  A    between atoms: _449  and  _452
REMARK  184  A    between atoms: _452  and  _453
REMARK  185  A    between atoms: _458  and  _460
REMARK  186  A    between atoms: _460  and  _461
REMARK  187  A    between atoms: _460  and  _463
REMARK  188  A    between atoms: _466  and  _468
REMARK  189  A    between atoms: _468  and  _469
REMARK  190  A    between atoms: _468  and  _471
REMARK  191  A    between atoms: _471  and  _472
REMARK  192  A    between atoms: _472  and  _473
REMARK  193  A    between atoms: _478  and  _480
REMARK  194  A    between atoms: _480  and  _481
REMARK  195  A    between atoms: _485  and  _486
REMARK  196  A    between atoms: _491  and  _493
REMARK  197  A    between atoms: _493  and  _494
REMARK  198  A    between atoms: _493  and  _496
REMARK  199  A    between atoms: _496  and  _497
REMARK  200  A    between atoms: _497  and  _498
REMARK  201  A    between atoms: _501  and  _503
REMARK  202  A    between atoms: _503  and  _504
REMARK  203  A    between atoms: _503  and  _506
REMARK  204  A    between atoms: _509  and  _511
REMARK  205  A    between atoms: _511  and  _512
REMARK  206  A    between atoms: _511  and  _514
REMARK  207  A    between atoms: _514  and  _515
REMARK  208  A    between atoms: _519  and  _520
REMARK  209  A    between atoms: _525  and  _527
REMARK  210  A    between atoms: _527  and  _528
REMARK  211  A    between atoms: _527  and  _530
REMARK  212  A    between atoms: _530  and  _531
REMARK  213  A    between atoms: _534  and  _536
REMARK  214  A    between atoms: _536  and  _537
REMARK  215  A    between atoms: _540  and  _542
REMARK  216  A    between atoms: _542  and  _543
REMARK  217  A    between atoms: _542  and  _545
REMARK  218  A    between atoms: _545  and  _546
REMARK  219  A    between atoms: _549  and  _551
REMARK  220  A    between atoms: _551  and  _552
REMARK  221  A    between atoms: _551  and  _554
REMARK  222  A    between atoms: _554  and  _555
REMARK  223  A    between atoms: _557  and  _559
REMARK  224  A    between atoms: _559  and  _560
REMARK  225  A    between atoms: _562  and  _564
REMARK  226  A    between atoms: _564  and  _565
REMARK  227  A    between atoms: _564  and  _567
REMARK  228  A    between atoms: _567  and  _568
REMARK  229  A    between atoms: _571  and  _573
REMARK  230  A    between atoms: _573  and  _574
REMARK  231  A    between atoms: _573  and  _576
REMARK                            x       y       z     vdW  Elec       q    Type
REMARK                         _______ _______ _______ _____ _____    ______ ____
ROOT
ATOM      1  C   VAL A   4      -6.760 -10.241  15.495  0.00  0.00    +0.241 C 
ATOM      2  O   VAL A   4      -6.346 -10.321  16.652  0.00  0.00    -0.273 OA
ATOM      3  N   GLY A   5      -7.054  -9.087  14.908  0.00  0.00    -0.295 N 
ATOM      4  H   GLY A   5      -7.301  -9.083  13.898  0.00  0.00    +0.150 HD
ENDROOT
BRANCH   3   5
ATOM      5  CA  GLY A   5      -7.041  -7.833  15.634  0.00  0.00    +0.176 C 
BRANCH   5   6
ATOM      6  C   GLY A   5      -8.421  -7.213  15.584  0.00  0.00    +0.243 C 
ATOM      7  N   LEU A   6      -9.164  -7.339  16.679  0.00  0.00    -0.297 N 
ATOM      8  H   LEU A   6      -8.752  -7.796  17.518  0.00  0.00    +0.150 HD
ATOM      9  O   GLY A   5      -8.810  -6.642  14.568  0.00  0.00    -0.273 OA
BRANCH   7  10
ATOM     10  CA  LEU A   6     -10.540  -6.856  16.741  0.00  0.00    +0.149 C 
BRANCH  10  11
ATOM     11  C   LEU A   6     -10.667  -5.643  17.655  0.00  0.00    +0.241 C 
ATOM     12  O   LEU A   6     -10.345  -5.718  18.840  0.00  0.00    -0.273 OA
ATOM     13  N   ASN A   7     -11.139  -4.530  17.099  0.00  0.00    -0.297 N 
ATOM     14  H   ASN A   7     -11.383  -4.531  16.088  0.00  0.00    +0.150 HD
BRANCH  13  15
ATOM     15  CA  ASN A   7     -11.322  -3.308  17.876  0.00  0.00    +0.158 C 
BRANCH  15  16
ATOM     16  C   ASN A   7     -12.572  -3.370  18.743  0.00  0.00    +0.241 C 
ATOM     17  N   VAL A   8     -12.370  -3.427  20.054  0.00  0.00    -0.298 N 
ATOM     18  H   VAL A   8     -11.396  -3.413  20.418  0.00  0.00    +0.150 HD
ATOM     19  O   ASN A   7     -13.694  -3.358  18.237  0.00  0.00    -0.273 OA
BRANCH  17  20
ATOM     20  CA  VAL A   8     -13.478  -3.508  20.995  0.00  0.00    +0.137 C 
BRANCH  20  21
ATOM     21  CB  VAL A   8     -13.126  -4.410  22.189  0.00  0.00    +0.026 C 
ATOM     22  CG2 VAL A   8     -14.323  -4.567  23.103  0.00  0.00    +0.002 C 
ATOM     23  CG1 VAL A   8     -12.651  -5.768  21.697  0.00  0.00    +0.002 C 
ENDBRANCH  20  21
BRANCH  20  24
ATOM     24  C   VAL A   8     -13.871  -2.120  21.496  0.00  0.00    +0.227 C 
ATOM     25  O   VAL A   8     -14.996  -1.667  21.285  0.00  0.00    -0.286 OA
ENDBRANCH  20  24
ENDBRANCH  17  20
ENDBRANCH  15  16
BRANCH  15  26
ATOM     26  CB  ASN A   7     -11.399  -2.087  16.958  0.00  0.00    +0.114 C 
BRANCH  26  27
ATOM     27  CG  ASN A   7     -10.157  -1.911  16.112  0.00  0.00    +0.222 C 
ATOM     28  ND2 ASN A   7      -8.993  -1.973  16.748  0.00  0.00    -0.329 N 
ATOM     29 HD21 ASN A   7      -8.970  -2.133  17.775  0.00  0.00    +0.145 HD
ATOM     30 HD22 ASN A   7      -8.105  -1.862  16.219  0.00  0.00    +0.145 HD
ATOM     31  OD1 ASN A   7     -10.242  -1.724  14.898  0.00  0.00    -0.275 OA
ENDBRANCH  26  27
ENDBRANCH  15  26
ENDBRANCH  13  15
ENDBRANCH  10  11
BRANCH  10  32
ATOM     32  CB  LEU A   6     -11.472  -7.974  17.219  0.00  0.00    +0.029 C 
BRANCH  32  33
ATOM     33  CG  LEU A   6     -12.919  -7.600  17.553  0.00  0.00    +0.002 C 
ATOM     34  CD2 LEU A   6     -13.649  -8.787  18.177  0.00  0.00    +0.000 C 
ATOM     35  CD1 LEU A   6     -13.652  -7.105  16.317  0.00  0.00    +0.000 C 
ENDBRANCH  32  33
ENDBRANCH  10  32
ENDBRANCH   7  10
ENDBRANCH   5   6
ENDBRANCH   3   5
BRANCH   1  36
ATOM     36  CA  VAL A   4      -6.952 -11.490  14.643  0.00  0.00    +0.149 C 
BRANCH  36  38
ATOM     37  C   GLY A   3      -5.195 -12.709  13.481  0.00  0.00    +0.243 C 
ATOM     38  N   VAL A   4      -5.744 -12.305  14.621  0.00  0.00    -0.297 N 
ATOM     39  H   VAL A   4      -5.300 -12.577  15.521  0.00  0.00    +0.150 HD
ATOM     40  O   GLY A   3      -5.658 -12.426  12.377  0.00  0.00    -0.273 OA
BRANCH  37  41
ATOM     41  CA  GLY A   3      -3.944 -13.555  13.605  0.00  0.00    +0.176 C 
BRANCH  41  44
ATOM     42  C   LEU A   2      -4.064 -15.941  13.178  0.00  0.00    +0.241 C 
ATOM     43  O   LEU A   2      -4.183 -16.202  14.372  0.00  0.00    -0.273 OA
ATOM     44  N   GLY A   3      -3.950 -14.701  12.714  0.00  0.00    -0.295 N 
ATOM     45  H   GLY A   3      -3.863 -14.548  11.689  0.00  0.00    +0.150 HD
BRANCH  42  46
ATOM     46  CA  LEU A   2      -4.045 -17.056  12.143  0.00  0.00    +0.149 C 
BRANCH  46  48
ATOM     47  C   VAL A   1      -1.768 -17.868  11.825  0.00  0.00    +0.238 C 
ATOM     48  N   LEU A   2      -2.956 -17.989  12.410  0.00  0.00    -0.297 N 
ATOM     49  H   LEU A   2      -3.113 -18.771  13.077  0.00  0.00    +0.150 HD
ATOM     50  O   VAL A   1      -1.513 -16.991  11.000  0.00  0.00    -0.274 OA
BRANCH  47  51
ATOM     51  CA  VAL A   1      -0.715 -18.897  12.221  0.00  0.00    +0.145 C 
BRANCH  51  52
ATOM     52  CB  VAL A   1       0.507 -18.176  12.821  0.00  0.00    +0.025 C 
ATOM     53  CG2 VAL A   1       0.070 -17.198  13.904  0.00  0.00    +0.002 C 
ATOM     54  CG1 VAL A   1       1.499 -19.185  13.379  0.00  0.00    +0.002 C 
ENDBRANCH  51  52
BRANCH  51  55
ATOM     55  N   VAL A   1      -0.347 -19.715  11.072  0.00  0.00    -0.238 NA
ATOM     56  H   VAL A   1       0.437 -19.412  10.460  0.00  0.00    +0.142 HD
ENDBRANCH  51  55
ENDBRANCH  47  51
ENDBRANCH  46  48
BRANCH  46  57
ATOM     57  CB  LEU A   2      -5.392 -17.783  12.135  0.00  0.00    +0.029 C 
BRANCH  57  58
ATOM     58  CG  LEU A   2      -5.789 -18.509  10.850  0.00  0.00    +0.002 C 
ATOM     59  CD2 LEU A   2      -7.045 -19.336  11.073  0.00  0.00    +0.000 C 
ATOM     60  CD1 LEU A   2      -5.991 -17.515   9.718  0.00  0.00    +0.000 C 
ENDBRANCH  57  58
ENDBRANCH  46  57
ENDBRANCH  42  46
ENDBRANCH  41  44
ENDBRANCH  37  41
ENDBRANCH  36  38
BRANCH  36  61
ATOM     61  CB  VAL A   4      -8.163 -12.283  15.179  0.00  0.00    +0.027 C 
ATOM     62  CG2 VAL A   4      -9.363 -11.368  15.357  0.00  0.00    +0.002 C 
ATOM     63  CG1 VAL A   4      -8.500 -13.438  14.249  0.00  0.00    +0.002 C 
ENDBRANCH  36  61
ENDBRANCH   1  36
TORSDOF 25
REMARK  Name = ../refined-set-2016/4xu3/4xu3_pocket.pdb
REMARK  231 active torsions:
REMARK  status: ('A' for Active; 'I' for Inactive)
REMARK    1  A    between atoms: _1  and  _3
REMARK    2  A    between atoms: _3  and  _4
REMARK    3  A    between atoms: _3  and  _6
REMARK    4  A    between atoms: _6  and  _7
REMARK    5  A    between atoms: _10  and  _12
REMARK    6  A    between atoms: _12  and  _13
REMARK    7  A    between atoms: _15  and  _17
REMARK    8  A    between atoms: _17  and  _18
REMARK    9  A    between atoms: _17  and  _20
REMARK   10  A    between atoms: _20  and  _21
REMARK   11  A    between atoms: _23  and  _25
REMARK   12  A    between atoms: _25  and  _26
REMARK   13  A    between atoms: _25  and  _28
REMARK   14  A    between atoms: _28  and  _29
REMARK   15  A    between atoms: _32  and  _34
REMARK   16  A    between atoms: _34  and  _35
REMARK   17  A    between atoms: _34  and  _37
REMARK   18  A    between atoms: _37  and  _38
REMARK   19  A    between atoms: _43  and  _45
REMARK   20  A    between atoms: _45  and  _46
REMARK   21  A    between atoms: _49  and  _51
REMARK   22  A    between atoms: _51  and  _52
REMARK   23  A    between atoms: _51  and  _54
REMARK   24  A    between atoms: _54  and  _55
REMARK   25  A    between atoms: _58  and  _60
REMARK   26  A    between atoms: _60  and  _61
REMARK   27  A    between atoms: _60  and  _63
REMARK   28  A    between atoms: _63  and  _64
REMARK   29  A    between atoms: _67  and  _69
REMARK   30  A    between atoms: _69  and  _70
REMARK   31  A    between atoms: _69  and  _72
REMARK   32  A    between atoms: _72  and  _73
REMARK   33  A    between atoms: _76  and  _78
REMARK   34  A    between atoms: _78  and  _79
REMARK   35  A    between atoms: _82  and  _84
REMARK   36  A    between atoms: _84  and  _85
REMARK   37  A    between atoms: _84  and  _87
REMARK   38  A    between atoms: _87  and  _88
REMARK   39  A    between atoms: _88  and  _89
REMARK   40  A    between atoms: _94  and  _96
REMARK   41  A    between atoms: _96  and  _97
REMARK   42  A    between atoms: _96  and  _99
REMARK   43  A    between atoms: _99  and  _100
REMARK   44  A    between atoms: _103  and  _105
REMARK   45  A    between atoms: _105  and  _106
REMARK   46  A    between atoms: _109  and  _111
REMARK   47  A    between atoms: _111  and  _112
REMARK   48  A    between atoms: _114  and  _116
REMARK   49  A    between atoms: _116  and  _117
REMARK   50  A    between atoms: _116  and  _119
REMARK   51  A    between atoms: _119  and  _120
REMARK   52  A    between atoms: _120  and  _121
REMARK   53  A    between atoms: _121  and  _122
REMARK   54  A    between atoms: _131  and  _133
REMARK   55  A    between atoms: _133  and  _134
REMARK   56  A    between atoms: _136  and  _138
REMARK   57  A    between atoms: _138  and  _139
REMARK   58  A    between atoms: _138  and  _141
REMARK   59  A    between atoms: _141  and  _142
REMARK   60  A    between atoms: _142  and  _143
REMARK   61  A    between atoms: _143  and  _144
REMARK   62  A    between atoms: _153  and  _155
REMARK   63  A    between atoms: _155  and  _156
REMARK   64  A    between atoms: _155  and  _158
REMARK   65  A    between atoms: _158  and  _159
REMARK   66  A    between atoms: _164  and  _166
REMARK   67  A    between atoms: _166  and  _167
REMARK   68  A    between atoms: _169  and  _171
REMARK   69  A    between atoms: _171  and  _172
REMARK   70  A    between atoms: _171  and  _174
REMARK   71  A    between atoms: _174  and  _175
REMARK   72  A    between atoms: _175  and  _176
REMARK   73  A    between atoms: _176  and  _177
REMARK   74  A    between atoms: _186  and  _188
REMARK   75  A    between atoms: _188  and  _189
REMARK   76  A    between atoms: _191  and  _193
REMARK   77  A    between atoms: _193  and  _194
REMARK   78  A    between atoms: _193  and  _196
REMARK   79  A    between atoms: _196  and  _197
REMARK   80  A    between atoms: _207  and  _209
REMARK   81  A    between atoms: _209  and  _210
REMARK   82  A    between atoms: _213  and  _215
REMARK   83  A    between atoms: _215  and  _216
REMARK   84  A    between atoms: _219  and  _221
REMARK   85  A    between atoms: _221  and  _222
REMARK   86  A    between atoms: _221  and  _224
REMARK   87  A    between atoms: _224  and  _225
REMARK   88  A    between atoms: _228  and  _230
REMARK   89  A    between atoms: _230  and  _231
REMARK   90  A    between atoms: _230  and  _233
REMARK   91  A    between atoms: _233  and  _234
REMARK   92  A    between atoms: _234  and  _235
REMARK   93  A    between atoms: _240  and  _242
REMARK   94  A    between atoms: _242  and  _243
REMARK   95  A    between atoms: _242  and  _245
REMARK   96  A    between atoms: _245  and  _246
REMARK   97  A    between atoms: _249  and  _251
REMARK   98  A    between atoms: _251  and  _252
REMARK   99  A    between atoms: _251  and  _254
REMARK  100  A    between atoms: _254  and  _255
REMARK  101  A    between atoms: _258  and  _260
REMARK  102  A    between atoms: _260  and  _261
REMARK  103  A    between atoms: _260  and  _263
REMARK  104  A    between atoms: _263  and  _264
REMARK  105  A    between atoms: _267  and  _269
REMARK  106  A    between atoms: _269  and  _270
REMARK  107  A    between atoms: _269  and  _272
REMARK  108  A    between atoms: _272  and  _273
REMARK  109  A    between atoms: _275  and  _277
REMARK  110  A    between atoms: _277  and  _278
REMARK  111  A    between atoms: _277  and  _280
REMARK  112  A    between atoms: _283  and  _285
REMARK  113  A    between atoms: _285  and  _286
REMARK  114  A    between atoms: _285  and  _288
REMARK  115  A    between atoms: _288  and  _289
REMARK  116  A    between atoms: _289  and  _290
REMARK  117  A    between atoms: _290  and  _291
REMARK  118  A    between atoms: _291  and  _292
REMARK  119  A    between atoms: _297  and  _298
REMARK  120  A    between atoms: _303  and  _305
REMARK  121  A    between atoms: _305  and  _306
REMARK  122  A    between atoms: _305  and  _308
REMARK  123  A    between atoms: _308  and  _309
REMARK  124  A    between atoms: _314  and  _316
REMARK  125  A    between atoms: _316  and  _317
REMARK  126  A    between atoms: _316  and  _319
REMARK  127  A    between atoms: _319  and  _320
REMARK  128  A    between atoms: _323  and  _325
REMARK  129  A    between atoms: _325  and  _326
REMARK  130  A    between atoms: _325  and  _328
REMARK  131  A    between atoms: _331  and  _333
REMARK  132  A    between atoms: _333  and  _334
REMARK  133  A    between atoms: _336  and  _338
REMARK  134  A    between atoms: _338  and  _339
REMARK  135  A    between atoms: _338  and  _341
REMARK  136  A    between atoms: _341  and  _342
REMARK  137  A    between atoms: _342  and  _343
REMARK  138  A    between atoms: _343  and  _344
REMARK  139  A    between atoms: _344  and  _345
REMARK  140  A    between atoms: _349  and  _351
REMARK  141  A    between atoms: _351  and  _352
REMARK  142  A    between atoms: _351  and  _354
REMARK  143  A    between atoms: _354  and  _355
REMARK  144  A    between atoms: _358  and  _360
REMARK  145  A    between atoms: _360  and  _361
REMARK  146  A    between atoms: _364  and  _366
REMARK  147  A    between atoms: _366  and  _367
REMARK  148  A    between atoms: _369  and  _371
REMARK  149  A    between atoms: _371  and  _372
REMARK  150  A    between atoms: _371  and  _374
REMARK  151  A    between atoms: _374  and  _375
REMARK  152  A    between atoms: _378  and  _380
REMARK  153  A    between atoms: _380  and  _381
REMARK  154  A    between atoms: _380  and  _383
REMARK  155  A    between atoms: _383  and  _384
REMARK  156  A    between atoms: _387  and  _389
REMARK  157  A    between atoms: _389  and  _390
REMARK  158  A    between atoms: _393  and  _395
REMARK  159  A    between atoms: _395  and  _396
REMARK  160  A    between atoms: _395  and  _398
REMARK  161  A    between atoms: _398  and  _399
REMARK  162  A    between atoms: _399  and  _400
REMARK  163  A    between atoms: _403  and  _405
REMARK  164  A    between atoms: _405  and  _406
REMARK  165  A    between atoms: _405  and  _408
REMARK  166  A    between atoms: _411  and  _413
REMARK  167  A    between atoms: _413  and  _414
REMARK  168  A    between atoms: _413  and  _416
REMARK  169  A    between atoms: _416  and  _417
REMARK  170  A    between atoms: _420  and  _422
REMARK  171  A    between atoms: _422  and  _423
REMARK  172  A    between atoms: _425  and  _427
REMARK  173  A    between atoms: _427  and  _428
REMARK  174  A    between atoms: _427  and  _430
REMARK  175  A    between atoms: _433  and  _435
REMARK  176  A    between atoms: _435  and  _436
REMARK  177  A    between atoms: _438  and  _440
REMARK  178  A    between atoms: _440  and  _441
REMARK  179  A    between atoms: _440  and  _443
REMARK  180  A    between atoms: _443  and  _444
REMARK  181  A    between atoms: _447  and  _449
REMARK  182  A    between atoms: _449  and  _450
REMARK  183  A    between atoms: _449  and  _452
REMARK  184  A    between atoms: _452  and  _453
REMARK  185  A    between atoms: _458  and  _460
REMARK  186  A    between atoms: _460  and  _461
REMARK  187  A    between atoms: _460  and  _463
REMARK  188  A    between atoms: _466  and  _468
REMARK  189  A    between atoms: _468  and  _469
REMARK  190  A    between atoms: _468  and  _471
REMARK  191  A    between atoms: _471  and  _472
REMARK  192  A    between atoms: _472  and  _473
REMARK  193  A    between atoms: _478  and  _480
REMARK  194  A    between atoms: _480  and  _481
REMARK  195  A    between atoms: _485  and  _486
REMARK  196  A    between atoms: _491  and  _493
REMARK  197  A    between atoms: _493  and  _494
REMARK  198  A    between atoms: _493  and  _496
REMARK  199  A    between atoms: _496  and  _497
REMARK  200  A    between atoms: _497  and  _498
REMARK  201  A    between atoms: _501  and  _503
REMARK  202  A    between atoms: _503  and  _504
REMARK  203  A    between atoms: _503  and  _506
REMARK  204  A    between atoms: _509  and  _511
REMARK  205  A    between atoms: _511  and  _512
REMARK  206  A    between atoms: _511  and  _514
REMARK  207  A    between atoms: _514  and  _515
REMARK  208  A    between atoms: _519  and  _520
REMARK  209  A    between atoms: _525  and  _527
REMARK  210  A    between atoms: _527  and  _528
REMARK  211  A    between atoms: _527  and  _530
REMARK  212  A    between atoms: _530  and  _531
REMARK  213  A    between atoms: _534  and  _536
REMARK  214  A    between atoms: _536  and  _537
REMARK  215  A    between atoms: _540  and  _542
REMARK  216  A    between atoms: _542  and  _543
REMARK  217  A    between atoms: _542  and  _545
REMARK  218  A    between atoms: _545  and  _546
REMARK  219  A    between atoms: _549  and  _551
REMARK  220  A    between atoms: _551  and  _552
REMARK  221  A    between atoms: _551  and  _554
REMARK  222  A    between atoms: _554  and  _555
REMARK  223  A    between atoms: _557  and  _559
REMARK  224  A    between atoms: _559  and  _560
REMARK  225  A    between atoms: _562  and  _564
REMARK  226  A    between atoms: _564  and  _565
REMARK  227  A    between atoms: _564  and  _567
REMARK  228  A    between atoms: _567  and  _568
REMARK  229  A    between atoms: _571  and  _573
REMARK  230  A    between atoms: _573  and  _574
REMARK  231  A    between atoms: _573  and  _576
REMARK                            x       y       z     vdW  Elec       q    Type
REMARK                         _______ _______ _______ _____ _____    ______ ____
ROOT
ATOM      1  C   GLN A   1     -10.784   2.278  19.655  0.00  0.00    +0.238 C 
ATOM      2  N   ALA A   2     -10.311   3.462  20.032  0.00  0.00    -0.297 N 
ATOM      3  H   ALA A   2      -9.649   3.515  20.832  0.00  0.00    +0.150 HD
ATOM      4  O   GLN A   1     -11.595   2.144  18.739  0.00  0.00    -0.274 OA
ENDROOT
BRANCH   2   5
ATOM      5  CA  ALA A   2     -10.702   4.688  19.347  0.00  0.00    +0.149 C 
ATOM      6  CB  ALA A   2     -10.443   5.898  20.230  0.00  0.00    +0.031 C 
BRANCH   5   7
ATOM      7  C   ALA A   2      -9.959   4.825  18.023  0.00  0.00    +0.244 C 
ATOM      8  O   ALA A   2      -8.744   4.640  17.968  0.00  0.00    -0.273 OA
ATOM      9  N   PRO A   3     -10.696   5.146  16.948  0.00  0.00    -0.273 N 
ATOM     10  CD  PRO A   3     -12.161   5.302  16.956  0.00  0.00    +0.094 C 
ATOM     11  CG  PRO A   3     -12.516   5.255  15.500  0.00  0.00    +0.024 C 
ATOM     12  CB  PRO A   3     -11.331   5.812  14.786  0.00  0.00    +0.030 C 
ATOM     13  CA  PRO A   3     -10.131   5.330  15.606  0.00  0.00    +0.140 C 
BRANCH  13  14
ATOM     14  C   PRO A   3      -9.005   6.361  15.578  0.00  0.00    +0.227 C 
ATOM     15  O   PRO A   3      -8.091   6.250  14.761  0.00  0.00    -0.286 OA
ENDBRANCH  13  14
ENDBRANCH   5   7
ENDBRANCH   2   5
BRANCH   1  16
ATOM     16  CA  GLN A   1     -10.267   1.066  20.424  0.00  0.00    +0.145 C 
BRANCH  16  17
ATOM     17  N   GLN A   1     -11.355   0.324  21.048  0.00  0.00    -0.238 NA
ATOM     18  H   GLN A   1     -11.561  -0.641  20.718  0.00  0.00    +0.142 HD
ENDBRANCH  16  17
BRANCH  16  19
ATOM     19  CB  GLN A   1      -9.472   0.154  19.490  0.00  0.00    +0.036 C 
BRANCH  19  20
ATOM     20  CG  GLN A   1      -8.215   0.787  18.912  0.00  0.00    +0.087 C 
BRANCH  20  21
ATOM     21  CD  GLN A   1      -7.077   0.851  19.915  0.00  0.00    +0.219 C 
ATOM     22  NE2 GLN A   1      -7.088   1.872  20.764  0.00  0.00    -0.329 N 
ATOM     23 HE21 GLN A   1      -6.330   1.970  21.469  0.00  0.00    +0.145 HD
ATOM     24 HE22 GLN A   1      -7.855   2.573  20.724  0.00  0.00    +0.145 HD
ATOM     25  OE1 GLN A   1      -6.193  -0.007  19.920  0.00  0.00    -0.275 OA
ENDBRANCH  20  21
ENDBRANCH  19  20
ENDBRANCH  16  19
ENDBRANCH   1  16
TORSDOF 8
REMARK  Name = ../refined-set-2016/4xu3/4xu3_pocket.pdb
REMARK  231 active torsions:
REMARK  status: ('A' for Active; 'I' for Inactive)
REMARK    1  A    between atoms: _1  and  _3
REMARK    2  A    between atoms: _3  and  _4
REMARK    3  A    between atoms: _3  and  _6
REMARK    4  A    between atoms: _6  and  _7
REMARK    5  A    between atoms: _10  and  _12
REMARK    6  A    between atoms: _12  and  _13
REMARK    7  A    between atoms: _15  and  _17
REMARK    8  A    between atoms: _17  and  _18
REMARK    9  A    between atoms: _17  and  _20
REMARK   10  A    between atoms: _20  and  _21
REMARK   11  A    between atoms: _23  and  _25
REMARK   12  A    between atoms: _25  and  _26
REMARK   13  A    between atoms: _25  and  _28
REMARK   14  A    between atoms: _28  and  _29
REMARK   15  A    between atoms: _32  and  _34
REMARK   16  A    between atoms: _34  and  _35
REMARK   17  A    between atoms: _34  and  _37
REMARK   18  A    between atoms: _37  and  _38
REMARK   19  A    between atoms: _43  and  _45
REMARK   20  A    between atoms: _45  and  _46
REMARK   21  A    between atoms: _49  and  _51
REMARK   22  A    between atoms: _51  and  _52
REMARK   23  A    between atoms: _51  and  _54
REMARK   24  A    between atoms: _54  and  _55
REMARK   25  A    between atoms: _58  and  _60
REMARK   26  A    between atoms: _60  and  _61
REMARK   27  A    between atoms: _60  and  _63
REMARK   28  A    between atoms: _63  and  _64
REMARK   29  A    between atoms: _67  and  _69
REMARK   30  A    between atoms: _69  and  _70
REMARK   31  A    between atoms: _69  and  _72
REMARK   32  A    between atoms: _72  and  _73
REMARK   33  A    between atoms: _76  and  _78
REMARK   34  A    between atoms: _78  and  _79
REMARK   35  A    between atoms: _82  and  _84
REMARK   36  A    between atoms: _84  and  _85
REMARK   37  A    between atoms: _84  and  _87
REMARK   38  A    between atoms: _87  and  _88
REMARK   39  A    between atoms: _88  and  _89
REMARK   40  A    between atoms: _94  and  _96
REMARK   41  A    between atoms: _96  and  _97
REMARK   42  A    between atoms: _96  and  _99
REMARK   43  A    between atoms: _99  and  _100
REMARK   44  A    between atoms: _103  and  _105
REMARK   45  A    between atoms: _105  and  _106
REMARK   46  A    between atoms: _109  and  _111
REMARK   47  A    between atoms: _111  and  _112
REMARK   48  A    between atoms: _114  and  _116
REMARK   49  A    between atoms: _116  and  _117
REMARK   50  A    between atoms: _116  and  _119
REMARK   51  A    between atoms: _119  and  _120
REMARK   52  A    between atoms: _120  and  _121
REMARK   53  A    between atoms: _121  and  _122
REMARK   54  A    between atoms: _131  and  _133
REMARK   55  A    between atoms: _133  and  _134
REMARK   56  A    between atoms: _136  and  _138
REMARK   57  A    between atoms: _138  and  _139
REMARK   58  A    between atoms: _138  and  _141
REMARK   59  A    between atoms: _141  and  _142
REMARK   60  A    between atoms: _142  and  _143
REMARK   61  A    between atoms: _143  and  _144
REMARK   62  A    between atoms: _153  and  _155
REMARK   63  A    between atoms: _155  and  _156
REMARK   64  A    between atoms: _155  and  _158
REMARK   65  A    between atoms: _158  and  _159
REMARK   66  A    between atoms: _164  and  _166
REMARK   67  A    between atoms: _166  and  _167
REMARK   68  A    between atoms: _169  and  _171
REMARK   69  A    between atoms: _171  and  _172
REMARK   70  A    between atoms: _171  and  _174
REMARK   71  A    between atoms: _174  and  _175
REMARK   72  A    between atoms: _175  and  _176
REMARK   73  A    between atoms: _176  and  _177
REMARK   74  A    between atoms: _186  and  _188
REMARK   75  A    between atoms: _188  and  _189
REMARK   76  A    between atoms: _191  and  _193
REMARK   77  A    between atoms: _193  and  _194
REMARK   78  A    between atoms: _193  and  _196
REMARK   79  A    between atoms: _196  and  _197
REMARK   80  A    between atoms: _207  and  _209
REMARK   81  A    between atoms: _209  and  _210
REMARK   82  A    between atoms: _213  and  _215
REMARK   83  A    between atoms: _215  and  _216
REMARK   84  A    between atoms: _219  and  _221
REMARK   85  A    between atoms: _221  and  _222
REMARK   86  A    between atoms: _221  and  _224
REMARK   87  A    between atoms: _224  and  _225
REMARK   88  A    between atoms: _228  and  _230
REMARK   89  A    between atoms: _230  and  _231
REMARK   90  A    between atoms: _230  and  _233
REMARK   91  A    between atoms: _233  and  _234
REMARK   92  A    between atoms: _234  and  _235
REMARK   93  A    between atoms: _240  and  _242
REMARK   94  A    between atoms: _242  and  _243
REMARK   95  A    between atoms: _242  and  _245
REMARK   96  A    between atoms: _245  and  _246
REMARK   97  A    between atoms: _249  and  _251
REMARK   98  A    between atoms: _251  and  _252
REMARK   99  A    between atoms: _251  and  _254
REMARK  100  A    between atoms: _254  and  _255
REMARK  101  A    between atoms: _258  and  _260
REMARK  102  A    between atoms: _260  and  _261
REMARK  103  A    between atoms: _260  and  _263
REMARK  104  A    between atoms: _263  and  _264
REMARK  105  A    between atoms: _267  and  _269
REMARK  106  A    between atoms: _269  and  _270
REMARK  107  A    between atoms: _269  and  _272
REMARK  108  A    between atoms: _272  and  _273
REMARK  109  A    between atoms: _275  and  _277
REMARK  110  A    between atoms: _277  and  _278
REMARK  111  A    between atoms: _277  and  _280
REMARK  112  A    between atoms: _283  and  _285
REMARK  113  A    between atoms: _285  and  _286
REMARK  114  A    between atoms: _285  and  _288
REMARK  115  A    between atoms: _288  and  _289
REMARK  116  A    between atoms: _289  and  _290
REMARK  117  A    between atoms: _290  and  _291
REMARK  118  A    between atoms: _291  and  _292
REMARK  119  A    between atoms: _297  and  _298
REMARK  120  A    between atoms: _303  and  _305
REMARK  121  A    between atoms: _305  and  _306
REMARK  122  A    between atoms: _305  and  _308
REMARK  123  A    between atoms: _308  and  _309
REMARK  124  A    between atoms: _314  and  _316
REMARK  125  A    between atoms: _316  and  _317
REMARK  126  A    between atoms: _316  and  _319
REMARK  127  A    between atoms: _319  and  _320
REMARK  128  A    between atoms: _323  and  _325
REMARK  129  A    between atoms: _325  and  _326
REMARK  130  A    between atoms: _325  and  _328
REMARK  131  A    between atoms: _331  and  _333
REMARK  132  A    between atoms: _333  and  _334
REMARK  133  A    between atoms: _336  and  _338
REMARK  134  A    between atoms: _338  and  _339
REMARK  135  A    between atoms: _338  and  _341
REMARK  136  A    between atoms: _341  and  _342
REMARK  137  A    between atoms: _342  and  _343
REMARK  138  A    between atoms: _343  and  _344
REMARK  139  A    between atoms: _344  and  _345
REMARK  140  A    between atoms: _349  and  _351
REMARK  141  A    between atoms: _351  and  _352
REMARK  142  A    between atoms: _351  and  _354
REMARK  143  A    between atoms: _354  and  _355
REMARK  144  A    between atoms: _358  and  _360
REMARK  145  A    between atoms: _360  and  _361
REMARK  146  A    between atoms: _364  and  _366
REMARK  147  A    between atoms: _366  and  _367
REMARK  148  A    between atoms: _369  and  _371
REMARK  149  A    between atoms: _371  and  _372
REMARK  150  A    between atoms: _371  and  _374
REMARK  151  A    between atoms: _374  and  _375
REMARK  152  A    between atoms: _378  and  _380
REMARK  153  A    between atoms: _380  and  _381
REMARK  154  A    between atoms: _380  and  _383
REMARK  155  A    between atoms: _383  and  _384
REMARK  156  A    between atoms: _387  and  _389
REMARK  157  A    between atoms: _389  and  _390
REMARK  158  A    between atoms: _393  and  _395
REMARK  159  A    between atoms: _395  and  _396
REMARK  160  A    between atoms: _395  and  _398
REMARK  161  A    between atoms: _398  and  _399
REMARK  162  A    between atoms: _399  and  _400
REMARK  163  A    between atoms: _403  and  _405
REMARK  164  A    between atoms: _405  and  _406
REMARK  165  A    between atoms: _405  and  _408
REMARK  166  A    between atoms: _411  and  _413
REMARK  167  A    between atoms: _413  and  _414
REMARK  168  A    between atoms: _413  and  _416
REMARK  169  A    between atoms: _416  and  _417
REMARK  170  A    between atoms: _420  and  _422
REMARK  171  A    between atoms: _422  and  _423
REMARK  172  A    between atoms: _425  and  _427
REMARK  173  A    between atoms: _427  and  _428
REMARK  174  A    between atoms: _427  and  _430
REMARK  175  A    between atoms: _433  and  _435
REMARK  176  A    between atoms: _435  and  _436
REMARK  177  A    between atoms: _438  and  _440
REMARK  178  A    between atoms: _440  and  _441
REMARK  179  A    between atoms: _440  and  _443
REMARK  180  A    between atoms: _443  and  _444
REMARK  181  A    between atoms: _447  and  _449
REMARK  182  A    between atoms: _449  and  _450
REMARK  183  A    between atoms: _449  and  _452
REMARK  184  A    between atoms: _452  and  _453
REMARK  185  A    between atoms: _458  and  _460
REMARK  186  A    between atoms: _460  and  _461
REMARK  187  A    between atoms: _460  and  _463
REMARK  188  A    between atoms: _466  and  _468
REMARK  189  A    between atoms: _468  and  _469
REMARK  190  A    between atoms: _468  and  _471
REMARK  191  A    between atoms: _471  and  _472
REMARK  192  A    between atoms: _472  and  _473
REMARK  193  A    between atoms: _478  and  _480
REMARK  194  A    between atoms: _480  and  _481
REMARK  195  A    between atoms: _485  and  _486
REMARK  196  A    between atoms: _491  and  _493
REMARK  197  A    between atoms: _493  and  _494
REMARK  198  A    between atoms: _493  and  _496
REMARK  199  A    between atoms: _496  and  _497
REMARK  200  A    between atoms: _497  and  _498
REMARK  201  A    between atoms: _501  and  _503
REMARK  202  A    between atoms: _503  and  _504
REMARK  203  A    between atoms: _503  and  _506
REMARK  204  A    between atoms: _509  and  _511
REMARK  205  A    between atoms: _511  and  _512
REMARK  206  A    between atoms: _511  and  _514
REMARK  207  A    between atoms: _514  and  _515
REMARK  208  A    between atoms: _519  and  _520
REMARK  209  A    between atoms: _525  and  _527
REMARK  210  A    between atoms: _527  and  _528
REMARK  211  A    between atoms: _527  and  _530
REMARK  212  A    between atoms: _530  and  _531
REMARK  213  A    between atoms: _534  and  _536
REMARK  214  A    between atoms: _536  and  _537
REMARK  215  A    between atoms: _540  and  _542
REMARK  216  A    between atoms: _542  and  _543
REMARK  217  A    between atoms: _542  and  _545
REMARK  218  A    between atoms: _545  and  _546
REMARK  219  A    between atoms: _549  and  _551
REMARK  220  A    between atoms: _551  and  _552
REMARK  221  A    between atoms: _551  and  _554
REMARK  222  A    between atoms: _554  and  _555
REMARK  223  A    between atoms: _557  and  _559
REMARK  224  A    between atoms: _559  and  _560
REMARK  225  A    between atoms: _562  and  _564
REMARK  226  A    between atoms: _564  and  _565
REMARK  227  A    between atoms: _564  and  _567
REMARK  228  A    between atoms: _567  and  _568
REMARK  229  A    between atoms: _571  and  _573
REMARK  230  A    between atoms: _573  and  _574
REMARK  231  A    between atoms: _573  and  _576
REMARK                            x       y       z     vdW  Elec       q    Type
REMARK                         _______ _______ _______ _____ _____    ______ ____
ROOT
ATOM      1  C   PRO A   4      -9.943   6.262   9.764  0.00  0.00    +0.241 C 
ATOM      2  O   PRO A   4     -11.080   6.731   9.741  0.00  0.00    -0.273 OA
ATOM      3  N   ASP A   5      -9.636   5.074   9.252  0.00  0.00    -0.297 N 
ATOM      4  H   ASP A   5      -8.654   4.736   9.302  0.00  0.00    +0.150 HD
ENDROOT
BRANCH   1   8
ATOM      5  C   ASP A   3      -7.691   5.290  11.692  0.00  0.00    +0.244 C 
ATOM      6  O   ASP A   3      -8.732   4.987  12.275  0.00  0.00    -0.273 OA
ATOM      7  N   PRO A   4      -7.638   6.259  10.763  0.00  0.00    -0.272 N 
ATOM      8  CA  PRO A   4      -8.811   7.068  10.402  0.00  0.00    +0.152 C 
ATOM      9  CB  PRO A   4      -8.242   8.083   9.402  0.00  0.00    +0.031 C 
ATOM     10  CG  PRO A   4      -7.009   7.439   8.865  0.00  0.00    +0.024 C 
ATOM     11  CD  PRO A   4      -6.438   6.671  10.015  0.00  0.00    +0.094 C 
BRANCH   5  12
ATOM     12  CA  ASP A   3      -6.388   4.555  12.004  0.00  0.00    +0.160 C 
BRANCH  12  14
ATOM     13  C   VAL A   2      -5.054   3.961  13.957  0.00  0.00    +0.241 C 
ATOM     14  N   ASP A   3      -6.211   4.372  13.443  0.00  0.00    -0.297 N 
ATOM     15  H   ASP A   3      -7.009   4.568  14.081  0.00  0.00    +0.150 HD
ATOM     16  O   VAL A   2      -4.038   3.826  13.277  0.00  0.00    -0.273 OA
BRANCH  13  17
ATOM     17  CA  VAL A   2      -5.018   3.651  15.458  0.00  0.00    +0.148 C 
BRANCH  17  20
ATOM     18  C   GLU A   1      -4.925   5.065  17.424  0.00  0.00    +0.238 C 
ATOM     19  O   GLU A   1      -3.811   4.636  17.718  0.00  0.00    -0.274 OA
ATOM     20  N   VAL A   2      -5.563   4.701  16.315  0.00  0.00    -0.297 N 
ATOM     21  H   VAL A   2      -6.456   5.167  16.056  0.00  0.00    +0.150 HD
BRANCH  18  22
ATOM     22  CA  GLU A   1      -5.632   6.059  18.342  0.00  0.00    +0.145 C 
BRANCH  22  23
ATOM     23  N   GLU A   1      -6.803   6.661  17.717  0.00  0.00    -0.238 NA
ATOM     24  H   GLU A   1      -7.716   6.165  17.767  0.00  0.00    +0.142 HD
ENDBRANCH  22  23
BRANCH  22  25
ATOM     25  CB  GLU A   1      -6.026   5.363  19.647  0.00  0.00    +0.038 C 
BRANCH  25  26
ATOM     26  CG  GLU A   1      -6.542   6.302  20.728  0.00  0.00    +0.116 C 
BRANCH  26  27
ATOM     27  CD  GLU A   1      -6.975   5.567  21.985  0.00  0.00    +0.365 C 
ATOM     28  OE2 GLU A   1      -6.861   6.149  23.085  0.00  0.00    -0.246 OA
ATOM     29  OE1 GLU A   1      -7.430   4.408  21.876  0.00  0.00    -0.246 OA
ENDBRANCH  26  27
ENDBRANCH  25  26
ENDBRANCH  22  25
ENDBRANCH  18  22
ENDBRANCH  17  20
BRANCH  17  30
ATOM     30  CB  VAL A   2      -5.752   2.310  15.701  0.00  0.00    +0.027 C 
ATOM     31  CG2 VAL A   2      -5.235   1.649  16.968  0.00  0.00    +0.002 C 
ATOM     32  CG1 VAL A   2      -7.260   2.518  15.779  0.00  0.00    +0.002 C 
ENDBRANCH  17  30
ENDBRANCH  13  17
ENDBRANCH  12  14
BRANCH  12  33
ATOM     33  CB  ASP A   3      -6.365   3.198  11.290  0.00  0.00    +0.143 C 
BRANCH  33  34
ATOM     34  CG  ASP A   3      -6.253   3.329   9.783  0.00  0.00    +0.367 C 
ATOM     35  OD2 ASP A   3      -5.113   3.370   9.274  0.00  0.00    -0.246 OA
ATOM     36  OD1 ASP A   3      -7.301   3.393   9.108  0.00  0.00    -0.246 OA
ENDBRANCH  33  34
ENDBRANCH  12  33
ENDBRANCH   5  12
ENDBRANCH   1   8
BRANCH   3  37
ATOM     37  CA  ASP A   5     -10.651   4.235   8.621  0.00  0.00    +0.160 C 
BRANCH  37  38
ATOM     38  C   ASP A   5     -11.144   3.137   9.559  0.00  0.00    +0.241 C 
ATOM     39  N   ALA A   6     -10.732   3.205  10.821  0.00  0.00    -0.297 N 
ATOM     40  H   ALA A   6     -10.160   4.018  11.127  0.00  0.00    +0.150 HD
ATOM     41  O   ASP A   5     -11.891   2.248   9.148  0.00  0.00    -0.273 OA
BRANCH  39  42
ATOM     42  CA  ALA A   6     -11.066   2.163  11.785  0.00  0.00    +0.149 C 
ATOM     43  CB  ALA A   6      -9.912   1.958  12.755  0.00  0.00    +0.031 C 
BRANCH  42  44
ATOM     44  C   ALA A   6     -12.346   2.468  12.556  0.00  0.00    +0.241 C 
ATOM     45  N   THR A   7     -12.986   1.413  13.048  0.00  0.00    -0.295 N 
ATOM     46  H   THR A   7     -12.668   0.460  12.778  0.00  0.00    +0.150 HD
ATOM     47  O   ALA A   6     -12.745   3.624  12.697  0.00  0.00    -0.273 OA
BRANCH  45  48
ATOM     48  CA  THR A   7     -14.118   1.547  13.952  0.00  0.00    +0.176 C 
BRANCH  48  49
ATOM     49  C   THR A   7     -13.997   0.490  15.040  0.00  0.00    +0.243 C 
ATOM     50  N   SER A   8     -14.827   0.601  16.070  0.00  0.00    -0.296 N 
ATOM     51  H   SER A   8     -15.487   1.404  16.103  0.00  0.00    +0.150 HD
ATOM     52  O   THR A   7     -13.160  -0.406  14.950  0.00  0.00    -0.273 OA
BRANCH  50  53
ATOM     53  CA  SER A   8     -14.838  -0.371  17.155  0.00  0.00    +0.166 C 
BRANCH  53  54
ATOM     54  CB  SER A   8     -16.268  -0.657  17.579  0.00  0.00    +0.229 C 
ATOM     55  OG  SER A   8     -17.189   0.036  17.162  0.00  0.00    -0.286 OA
ENDBRANCH  53  54
BRANCH  53  56
ATOM     56  C   SER A   8     -14.029   0.133  18.348  0.00  0.00    +0.165 C 
BRANCH  56  57
ATOM     57  O   SER A   8     -14.623   1.290  18.913  0.00  0.00    -0.380 OA
ATOM     58  H   SER A   8     -14.663   2.006  18.230  0.00  0.00    +0.211 HD
ENDBRANCH  56  57
ENDBRANCH  53  56
ENDBRANCH  50  53
ENDBRANCH  48  49
BRANCH  48  59
ATOM     59  CB  THR A   7     -15.470   1.396  13.222  0.00  0.00    +0.137 C 
ATOM     60  CG2 THR A   7     -15.677  -0.041  12.764  0.00  0.00    +0.034 C 
BRANCH  59  61
ATOM     61  OG1 THR A   7     -16.537   1.770  14.102  0.00  0.00    -0.382 OA
ATOM     62  HG1 THR A   7     -17.402   1.672  13.630  0.00  0.00    +0.210 HD
ENDBRANCH  59  61
ENDBRANCH  48  59
ENDBRANCH  45  48
ENDBRANCH  42  44
ENDBRANCH  39  42
ENDBRANCH  37  38
BRANCH  37  63
ATOM     63  CB  ASP A   5     -10.107   3.611   7.335  0.00  0.00    +0.143 C 
BRANCH  63  64
ATOM     64  CG  ASP A   5      -9.921   4.627   6.227  0.00  0.00    +0.367 C 
ATOM     65  OD2 ASP A   5     -10.745   5.560   6.132  0.00  0.00    -0.246 OA
ATOM     66  OD1 ASP A   5      -8.953   4.490   5.449  0.00  0.00    -0.246 OA
ENDBRANCH  63  64
ENDBRANCH  37  63
ENDBRANCH   3  37
TORSDOF 27
REMARK  Name = ../refined-set-2016/4xu3/4xu3_pocket.pdb
REMARK  231 active torsions:
REMARK  status: ('A' for Active; 'I' for Inactive)
REMARK    1  A    between atoms: _1  and  _3
REMARK    2  A    between atoms: _3  and  _4
REMARK    3  A    between atoms: _3  and  _6
REMARK    4  A    between atoms: _6  and  _7
REMARK    5  A    between atoms: _10  and  _12
REMARK    6  A    between atoms: _12  and  _13
REMARK    7  A    between atoms: _15  and  _17
REMARK    8  A    between atoms: _17  and  _18
REMARK    9  A    between atoms: _17  and  _20
REMARK   10  A    between atoms: _20  and  _21
REMARK   11  A    between atoms: _23  and  _25
REMARK   12  A    between atoms: _25  and  _26
REMARK   13  A    between atoms: _25  and  _28
REMARK   14  A    between atoms: _28  and  _29
REMARK   15  A    between atoms: _32  and  _34
REMARK   16  A    between atoms: _34  and  _35
REMARK   17  A    between atoms: _34  and  _37
REMARK   18  A    between atoms: _37  and  _38
REMARK   19  A    between atoms: _43  and  _45
REMARK   20  A    between atoms: _45  and  _46
REMARK   21  A    between atoms: _49  and  _51
REMARK   22  A    between atoms: _51  and  _52
REMARK   23  A    between atoms: _51  and  _54
REMARK   24  A    between atoms: _54  and  _55
REMARK   25  A    between atoms: _58  and  _60
REMARK   26  A    between atoms: _60  and  _61
REMARK   27  A    between atoms: _60  and  _63
REMARK   28  A    between atoms: _63  and  _64
REMARK   29  A    between atoms: _67  and  _69
REMARK   30  A    between atoms: _69  and  _70
REMARK   31  A    between atoms: _69  and  _72
REMARK   32  A    between atoms: _72  and  _73
REMARK   33  A    between atoms: _76  and  _78
REMARK   34  A    between atoms: _78  and  _79
REMARK   35  A    between atoms: _82  and  _84
REMARK   36  A    between atoms: _84  and  _85
REMARK   37  A    between atoms: _84  and  _87
REMARK   38  A    between atoms: _87  and  _88
REMARK   39  A    between atoms: _88  and  _89
REMARK   40  A    between atoms: _94  and  _96
REMARK   41  A    between atoms: _96  and  _97
REMARK   42  A    between atoms: _96  and  _99
REMARK   43  A    between atoms: _99  and  _100
REMARK   44  A    between atoms: _103  and  _105
REMARK   45  A    between atoms: _105  and  _106
REMARK   46  A    between atoms: _109  and  _111
REMARK   47  A    between atoms: _111  and  _112
REMARK   48  A    between atoms: _114  and  _116
REMARK   49  A    between atoms: _116  and  _117
REMARK   50  A    between atoms: _116  and  _119
REMARK   51  A    between atoms: _119  and  _120
REMARK   52  A    between atoms: _120  and  _121
REMARK   53  A    between atoms: _121  and  _122
REMARK   54  A    between atoms: _131  and  _133
REMARK   55  A    between atoms: _133  and  _134
REMARK   56  A    between atoms: _136  and  _138
REMARK   57  A    between atoms: _138  and  _139
REMARK   58  A    between atoms: _138  and  _141
REMARK   59  A    between atoms: _141  and  _142
REMARK   60  A    between atoms: _142  and  _143
REMARK   61  A    between atoms: _143  and  _144
REMARK   62  A    between atoms: _153  and  _155
REMARK   63  A    between atoms: _155  and  _156
REMARK   64  A    between atoms: _155  and  _158
REMARK   65  A    between atoms: _158  and  _159
REMARK   66  A    between atoms: _164  and  _166
REMARK   67  A    between atoms: _166  and  _167
REMARK   68  A    between atoms: _169  and  _171
REMARK   69  A    between atoms: _171  and  _172
REMARK   70  A    between atoms: _171  and  _174
REMARK   71  A    between atoms: _174  and  _175
REMARK   72  A    between atoms: _175  and  _176
REMARK   73  A    between atoms: _176  and  _177
REMARK   74  A    between atoms: _186  and  _188
REMARK   75  A    between atoms: _188  and  _189
REMARK   76  A    between atoms: _191  and  _193
REMARK   77  A    between atoms: _193  and  _194
REMARK   78  A    between atoms: _193  and  _196
REMARK   79  A    between atoms: _196  and  _197
REMARK   80  A    between atoms: _207  and  _209
REMARK   81  A    between atoms: _209  and  _210
REMARK   82  A    between atoms: _213  and  _215
REMARK   83  A    between atoms: _215  and  _216
REMARK   84  A    between atoms: _219  and  _221
REMARK   85  A    between atoms: _221  and  _222
REMARK   86  A    between atoms: _221  and  _224
REMARK   87  A    between atoms: _224  and  _225
REMARK   88  A    between atoms: _228  and  _230
REMARK   89  A    between atoms: _230  and  _231
REMARK   90  A    between atoms: _230  and  _233
REMARK   91  A    between atoms: _233  and  _234
REMARK   92  A    between atoms: _234  and  _235
REMARK   93  A    between atoms: _240  and  _242
REMARK   94  A    between atoms: _242  and  _243
REMARK   95  A    between atoms: _242  and  _245
REMARK   96  A    between atoms: _245  and  _246
REMARK   97  A    between atoms: _249  and  _251
REMARK   98  A    between atoms: _251  and  _252
REMARK   99  A    between atoms: _251  and  _254
REMARK  100  A    between atoms: _254  and  _255
REMARK  101  A    between atoms: _258  and  _260
REMARK  102  A    between atoms: _260  and  _261
REMARK  103  A    between atoms: _260  and  _263
REMARK  104  A    between atoms: _263  and  _264
REMARK  105  A    between atoms: _267  and  _269
REMARK  106  A    between atoms: _269  and  _270
REMARK  107  A    between atoms: _269  and  _272
REMARK  108  A    between atoms: _272  and  _273
REMARK  109  A    between atoms: _275  and  _277
REMARK  110  A    between atoms: _277  and  _278
REMARK  111  A    between atoms: _277  and  _280
REMARK  112  A    between atoms: _283  and  _285
REMARK  113  A    between atoms: _285  and  _286
REMARK  114  A    between atoms: _285  and  _288
REMARK  115  A    between atoms: _288  and  _289
REMARK  116  A    between atoms: _289  and  _290
REMARK  117  A    between atoms: _290  and  _291
REMARK  118  A    between atoms: _291  and  _292
REMARK  119  A    between atoms: _297  and  _298
REMARK  120  A    between atoms: _303  and  _305
REMARK  121  A    between atoms: _305  and  _306
REMARK  122  A    between atoms: _305  and  _308
REMARK  123  A    between atoms: _308  and  _309
REMARK  124  A    between atoms: _314  and  _316
REMARK  125  A    between atoms: _316  and  _317
REMARK  126  A    between atoms: _316  and  _319
REMARK  127  A    between atoms: _319  and  _320
REMARK  128  A    between atoms: _323  and  _325
REMARK  129  A    between atoms: _325  and  _326
REMARK  130  A    between atoms: _325  and  _328
REMARK  131  A    between atoms: _331  and  _333
REMARK  132  A    between atoms: _333  and  _334
REMARK  133  A    between atoms: _336  and  _338
REMARK  134  A    between atoms: _338  and  _339
REMARK  135  A    between atoms: _338  and  _341
REMARK  136  A    between atoms: _341  and  _342
REMARK  137  A    between atoms: _342  and  _343
REMARK  138  A    between atoms: _343  and  _344
REMARK  139  A    between atoms: _344  and  _345
REMARK  140  A    between atoms: _349  and  _351
REMARK  141  A    between atoms: _351  and  _352
REMARK  142  A    between atoms: _351  and  _354
REMARK  143  A    between atoms: _354  and  _355
REMARK  144  A    between atoms: _358  and  _360
REMARK  145  A    between atoms: _360  and  _361
REMARK  146  A    between atoms: _364  and  _366
REMARK  147  A    between atoms: _366  and  _367
REMARK  148  A    between atoms: _369  and  _371
REMARK  149  A    between atoms: _371  and  _372
REMARK  150  A    between atoms: _371  and  _374
REMARK  151  A    between atoms: _374  and  _375
REMARK  152  A    between atoms: _378  and  _380
REMARK  153  A    between atoms: _380  and  _381
REMARK  154  A    between atoms: _380  and  _383
REMARK  155  A    between atoms: _383  and  _384
REMARK  156  A    between atoms: _387  and  _389
REMARK  157  A    between atoms: _389  and  _390
REMARK  158  A    between atoms: _393  and  _395
REMARK  159  A    between atoms: _395  and  _396
REMARK  160  A    between atoms: _395  and  _398
REMARK  161  A    between atoms: _398  and  _399
REMARK  162  A    between atoms: _399  and  _400
REMARK  163  A    between atoms: _403  and  _405
REMARK  164  A    between atoms: _405  and  _406
REMARK  165  A    between atoms: _405  and  _408
REMARK  166  A    between atoms: _411  and  _413
REMARK  167  A    between atoms: _413  and  _414
REMARK  168  A    between atoms: _413  and  _416
REMARK  169  A    between atoms: _416  and  _417
REMARK  170  A    between atoms: _420  and  _422
REMARK  171  A    between atoms: _422  and  _423
REMARK  172  A    between atoms: _425  and  _427
REMARK  173  A    between atoms: _427  and  _428
REMARK  174  A    between atoms: _427  and  _430
REMARK  175  A    between atoms: _433  and  _435
REMARK  176  A    between atoms: _435  and  _436
REMARK  177  A    between atoms: _438  and  _440
REMARK  178  A    between atoms: _440  and  _441
REMARK  179  A    between atoms: _440  and  _443
REMARK  180  A    between atoms: _443  and  _444
REMARK  181  A    between atoms: _447  and  _449
REMARK  182  A    between atoms: _449  and  _450
REMARK  183  A    between atoms: _449  and  _452
REMARK  184  A    between atoms: _452  and  _453
REMARK  185  A    between atoms: _458  and  _460
REMARK  186  A    between atoms: _460  and  _461
REMARK  187  A    between atoms: _460  and  _463
REMARK  188  A    between atoms: _466  and  _468
REMARK  189  A    between atoms: _468  and  _469
REMARK  190  A    between atoms: _468  and  _471
REMARK  191  A    between atoms: _471  and  _472
REMARK  192  A    between atoms: _472  and  _473
REMARK  193  A    between atoms: _478  and  _480
REMARK  194  A    between atoms: _480  and  _481
REMARK  195  A    between atoms: _485  and  _486
REMARK  196  A    between atoms: _491  and  _493
REMARK  197  A    between atoms: _493  and  _494
REMARK  198  A    between atoms: _493  and  _496
REMARK  199  A    between atoms: _496  and  _497
REMARK  200  A    between atoms: _497  and  _498
REMARK  201  A    between atoms: _501  and  _503
REMARK  202  A    between atoms: _503  and  _504
REMARK  203  A    between atoms: _503  and  _506
REMARK  204  A    between atoms: _509  and  _511
REMARK  205  A    between atoms: _511  and  _512
REMARK  206  A    between atoms: _511  and  _514
REMARK  207  A    between atoms: _514  and  _515
REMARK  208  A    between atoms: _519  and  _520
REMARK  209  A    between atoms: _525  and  _527
REMARK  210  A    between atoms: _527  and  _528
REMARK  211  A    between atoms: _527  and  _530
REMARK  212  A    between atoms: _530  and  _531
REMARK  213  A    between atoms: _534  and  _536
REMARK  214  A    between atoms: _536  and  _537
REMARK  215  A    between atoms: _540  and  _542
REMARK  216  A    between atoms: _542  and  _543
REMARK  217  A    between atoms: _542  and  _545
REMARK  218  A    between atoms: _545  and  _546
REMARK  219  A    between atoms: _549  and  _551
REMARK  220  A    between atoms: _551  and  _552
REMARK  221  A    between atoms: _551  and  _554
REMARK  222  A    between atoms: _554  and  _555
REMARK  223  A    between atoms: _557  and  _559
REMARK  224  A    between atoms: _559  and  _560
REMARK  225  A    between atoms: _562  and  _564
REMARK  226  A    between atoms: _564  and  _565
REMARK  227  A    between atoms: _564  and  _567
REMARK  228  A    between atoms: _567  and  _568
REMARK  229  A    between atoms: _571  and  _573
REMARK  230  A    between atoms: _573  and  _574
REMARK  231  A    between atoms: _573  and  _576
REMARK                            x       y       z     vdW  Elec       q    Type
REMARK                         _______ _______ _______ _____ _____    ______ ____
ROOT
ATOM      1  CA  ASP A   2      -6.428  -4.140  -1.180  0.00  0.00    +0.160 C 
ENDROOT
BRANCH   1   4
ATOM      2  C   GLY A   1      -5.596  -6.284  -1.976  0.00  0.00    +0.240 C 
ATOM      3  O   GLY A   1      -6.347  -6.908  -1.229  0.00  0.00    -0.274 OA
ATOM      4  N   ASP A   2      -5.554  -4.956  -2.014  0.00  0.00    -0.297 N 
ATOM      5  H   ASP A   2      -4.881  -4.488  -2.654  0.00  0.00    +0.150 HD
BRANCH   2   6
ATOM      6  CA  GLY A   1      -4.654  -7.012  -2.913  0.00  0.00    +0.169 C 
BRANCH   6   7
ATOM      7  N   GLY A   1      -4.564  -8.430  -2.623  0.00  0.00    -0.236 NA
ATOM      8  H   GLY A   1      -4.822  -8.772  -1.675  0.00  0.00    +0.142 HD
ENDBRANCH   6   7
ENDBRANCH   2   6
ENDBRANCH   1   4
BRANCH   1   9
ATOM      9  C   ASP A   2      -7.672  -3.720  -1.954  0.00  0.00    +0.241 C 
ATOM     10  N   VAL A   3      -8.839  -3.982  -1.377  0.00  0.00    -0.298 N 
ATOM     11  H   VAL A   3      -8.853  -4.406  -0.427  0.00  0.00    +0.150 HD
ATOM     12  O   ASP A   2      -7.576  -3.169  -3.050  0.00  0.00    -0.273 OA
BRANCH  10  13
ATOM     13  CA  VAL A   3     -10.101  -3.689  -2.045  0.00  0.00    +0.137 C 
BRANCH  13  14
ATOM     14  CB  VAL A   3     -11.112  -4.834  -1.852  0.00  0.00    +0.026 C 
ATOM     15  CG2 VAL A   3     -12.491  -4.425  -2.355  0.00  0.00    +0.002 C 
ATOM     16  CG1 VAL A   3     -10.628  -6.091  -2.561  0.00  0.00    +0.002 C 
ENDBRANCH  13  14
BRANCH  13  17
ATOM     17  C   VAL A   3     -10.726  -2.386  -1.555  0.00  0.00    +0.227 C 
ATOM     18  O   VAL A   3     -10.859  -2.158  -0.352  0.00  0.00    -0.286 OA
ENDBRANCH  13  17
ENDBRANCH  10  13
ENDBRANCH   1   9
BRANCH   1  19
ATOM     19  CB  ASP A   2      -5.681  -2.909  -0.664  0.00  0.00    +0.143 C 
BRANCH  19  20
ATOM     20  CG  ASP A   2      -4.360  -3.263  -0.011  0.00  0.00    +0.367 C 
ATOM     21  OD2 ASP A   2      -4.252  -4.375   0.548  0.00  0.00    -0.246 OA
ATOM     22  OD1 ASP A   2      -3.428  -2.433  -0.059  0.00  0.00    -0.246 OA
ENDBRANCH  19  20
ENDBRANCH   1  19
TORSDOF 9
REMARK  Name = ../refined-set-2016/4xu3/4xu3_pocket.pdb
REMARK  231 active torsions:
REMARK  status: ('A' for Active; 'I' for Inactive)
REMARK    1  A    between atoms: _1  and  _3
REMARK    2  A    between atoms: _3  and  _4
REMARK    3  A    between atoms: _3  and  _6
REMARK    4  A    between atoms: _6  and  _7
REMARK    5  A    between atoms: _10  and  _12
REMARK    6  A    between atoms: _12  and  _13
REMARK    7  A    between atoms: _15  and  _17
REMARK    8  A    between atoms: _17  and  _18
REMARK    9  A    between atoms: _17  and  _20
REMARK   10  A    between atoms: _20  and  _21
REMARK   11  A    between atoms: _23  and  _25
REMARK   12  A    between atoms: _25  and  _26
REMARK   13  A    between atoms: _25  and  _28
REMARK   14  A    between atoms: _28  and  _29
REMARK   15  A    between atoms: _32  and  _34
REMARK   16  A    between atoms: _34  and  _35
REMARK   17  A    between atoms: _34  and  _37
REMARK   18  A    between atoms: _37  and  _38
REMARK   19  A    between atoms: _43  and  _45
REMARK   20  A    between atoms: _45  and  _46
REMARK   21  A    between atoms: _49  and  _51
REMARK   22  A    between atoms: _51  and  _52
REMARK   23  A    between atoms: _51  and  _54
REMARK   24  A    between atoms: _54  and  _55
REMARK   25  A    between atoms: _58  and  _60
REMARK   26  A    between atoms: _60  and  _61
REMARK   27  A    between atoms: _60  and  _63
REMARK   28  A    between atoms: _63  and  _64
REMARK   29  A    between atoms: _67  and  _69
REMARK   30  A    between atoms: _69  and  _70
REMARK   31  A    between atoms: _69  and  _72
REMARK   32  A    between atoms: _72  and  _73
REMARK   33  A    between atoms: _76  and  _78
REMARK   34  A    between atoms: _78  and  _79
REMARK   35  A    between atoms: _82  and  _84
REMARK   36  A    between atoms: _84  and  _85
REMARK   37  A    between atoms: _84  and  _87
REMARK   38  A    between atoms: _87  and  _88
REMARK   39  A    between atoms: _88  and  _89
REMARK   40  A    between atoms: _94  and  _96
REMARK   41  A    between atoms: _96  and  _97
REMARK   42  A    between atoms: _96  and  _99
REMARK   43  A    between atoms: _99  and  _100
REMARK   44  A    between atoms: _103  and  _105
REMARK   45  A    between atoms: _105  and  _106
REMARK   46  A    between atoms: _109  and  _111
REMARK   47  A    between atoms: _111  and  _112
REMARK   48  A    between atoms: _114  and  _116
REMARK   49  A    between atoms: _116  and  _117
REMARK   50  A    between atoms: _116  and  _119
REMARK   51  A    between atoms: _119  and  _120
REMARK   52  A    between atoms: _120  and  _121
REMARK   53  A    between atoms: _121  and  _122
REMARK   54  A    between atoms: _131  and  _133
REMARK   55  A    between atoms: _133  and  _134
REMARK   56  A    between atoms: _136  and  _138
REMARK   57  A    between atoms: _138  and  _139
REMARK   58  A    between atoms: _138  and  _141
REMARK   59  A    between atoms: _141  and  _142
REMARK   60  A    between atoms: _142  and  _143
REMARK   61  A    between atoms: _143  and  _144
REMARK   62  A    between atoms: _153  and  _155
REMARK   63  A    between atoms: _155  and  _156
REMARK   64  A    between atoms: _155  and  _158
REMARK   65  A    between atoms: _158  and  _159
REMARK   66  A    between atoms: _164  and  _166
REMARK   67  A    between atoms: _166  and  _167
REMARK   68  A    between atoms: _169  and  _171
REMARK   69  A    between atoms: _171  and  _172
REMARK   70  A    between atoms: _171  and  _174
REMARK   71  A    between atoms: _174  and  _175
REMARK   72  A    between atoms: _175  and  _176
REMARK   73  A    between atoms: _176  and  _177
REMARK   74  A    between atoms: _186  and  _188
REMARK   75  A    between atoms: _188  and  _189
REMARK   76  A    between atoms: _191  and  _193
REMARK   77  A    between atoms: _193  and  _194
REMARK   78  A    between atoms: _193  and  _196
REMARK   79  A    between atoms: _196  and  _197
REMARK   80  A    between atoms: _207  and  _209
REMARK   81  A    between atoms: _209  and  _210
REMARK   82  A    between atoms: _213  and  _215
REMARK   83  A    between atoms: _215  and  _216
REMARK   84  A    between atoms: _219  and  _221
REMARK   85  A    between atoms: _221  and  _222
REMARK   86  A    between atoms: _221  and  _224
REMARK   87  A    between atoms: _224  and  _225
REMARK   88  A    between atoms: _228  and  _230
REMARK   89  A    between atoms: _230  and  _231
REMARK   90  A    between atoms: _230  and  _233
REMARK   91  A    between atoms: _233  and  _234
REMARK   92  A    between atoms: _234  and  _235
REMARK   93  A    between atoms: _240  and  _242
REMARK   94  A    between atoms: _242  and  _243
REMARK   95  A    between atoms: _242  and  _245
REMARK   96  A    between atoms: _245  and  _246
REMARK   97  A    between atoms: _249  and  _251
REMARK   98  A    between atoms: _251  and  _252
REMARK   99  A    between atoms: _251  and  _254
REMARK  100  A    between atoms: _254  and  _255
REMARK  101  A    between atoms: _258  and  _260
REMARK  102  A    between atoms: _260  and  _261
REMARK  103  A    between atoms: _260  and  _263
REMARK  104  A    between atoms: _263  and  _264
REMARK  105  A    between atoms: _267  and  _269
REMARK  106  A    between atoms: _269  and  _270
REMARK  107  A    between atoms: _269  and  _272
REMARK  108  A    between atoms: _272  and  _273
REMARK  109  A    between atoms: _275  and  _277
REMARK  110  A    between atoms: _277  and  _278
REMARK  111  A    between atoms: _277  and  _280
REMARK  112  A    between atoms: _283  and  _285
REMARK  113  A    between atoms: _285  and  _286
REMARK  114  A    between atoms: _285  and  _288
REMARK  115  A    between atoms: _288  and  _289
REMARK  116  A    between atoms: _289  and  _290
REMARK  117  A    between atoms: _290  and  _291
REMARK  118  A    between atoms: _291  and  _292
REMARK  119  A    between atoms: _297  and  _298
REMARK  120  A    between atoms: _303  and  _305
REMARK  121  A    between atoms: _305  and  _306
REMARK  122  A    between atoms: _305  and  _308
REMARK  123  A    between atoms: _308  and  _309
REMARK  124  A    between atoms: _314  and  _316
REMARK  125  A    between atoms: _316  and  _317
REMARK  126  A    between atoms: _316  and  _319
REMARK  127  A    between atoms: _319  and  _320
REMARK  128  A    between atoms: _323  and  _325
REMARK  129  A    between atoms: _325  and  _326
REMARK  130  A    between atoms: _325  and  _328
REMARK  131  A    between atoms: _331  and  _333
REMARK  132  A    between atoms: _333  and  _334
REMARK  133  A    between atoms: _336  and  _338
REMARK  134  A    between atoms: _338  and  _339
REMARK  135  A    between atoms: _338  and  _341
REMARK  136  A    between atoms: _341  and  _342
REMARK  137  A    between atoms: _342  and  _343
REMARK  138  A    between atoms: _343  and  _344
REMARK  139  A    between atoms: _344  and  _345
REMARK  140  A    between atoms: _349  and  _351
REMARK  141  A    between atoms: _351  and  _352
REMARK  142  A    between atoms: _351  and  _354
REMARK  143  A    between atoms: _354  and  _355
REMARK  144  A    between atoms: _358  and  _360
REMARK  145  A    between atoms: _360  and  _361
REMARK  146  A    between atoms: _364  and  _366
REMARK  147  A    between atoms: _366  and  _367
REMARK  148  A    between atoms: _369  and  _371
REMARK  149  A    between atoms: _371  and  _372
REMARK  150  A    between atoms: _371  and  _374
REMARK  151  A    between atoms: _374  and  _375
REMARK  152  A    between atoms: _378  and  _380
REMARK  153  A    between atoms: _380  and  _381
REMARK  154  A    between atoms: _380  and  _383
REMARK  155  A    between atoms: _383  and  _384
REMARK  156  A    between atoms: _387  and  _389
REMARK  157  A    between atoms: _389  and  _390
REMARK  158  A    between atoms: _393  and  _395
REMARK  159  A    between atoms: _395  and  _396
REMARK  160  A    between atoms: _395  and  _398
REMARK  161  A    between atoms: _398  and  _399
REMARK  162  A    between atoms: _399  and  _400
REMARK  163  A    between atoms: _403  and  _405
REMARK  164  A    between atoms: _405  and  _406
REMARK  165  A    between atoms: _405  and  _408
REMARK  166  A    between atoms: _411  and  _413
REMARK  167  A    between atoms: _413  and  _414
REMARK  168  A    between atoms: _413  and  _416
REMARK  169  A    between atoms: _416  and  _417
REMARK  170  A    between atoms: _420  and  _422
REMARK  171  A    between atoms: _422  and  _423
REMARK  172  A    between atoms: _425  and  _427
REMARK  173  A    between atoms: _427  and  _428
REMARK  174  A    between atoms: _427  and  _430
REMARK  175  A    between atoms: _433  and  _435
REMARK  176  A    between atoms: _435  and  _436
REMARK  177  A    between atoms: _438  and  _440
REMARK  178  A    between atoms: _440  and  _441
REMARK  179  A    between atoms: _440  and  _443
REMARK  180  A    between atoms: _443  and  _444
REMARK  181  A    between atoms: _447  and  _449
REMARK  182  A    between atoms: _449  and  _450
REMARK  183  A    between atoms: _449  and  _452
REMARK  184  A    between atoms: _452  and  _453
REMARK  185  A    between atoms: _458  and  _460
REMARK  186  A    between atoms: _460  and  _461
REMARK  187  A    between atoms: _460  and  _463
REMARK  188  A    between atoms: _466  and  _468
REMARK  189  A    between atoms: _468  and  _469
REMARK  190  A    between atoms: _468  and  _471
REMARK  191  A    between atoms: _471  and  _472
REMARK  192  A    between atoms: _472  and  _473
REMARK  193  A    between atoms: _478  and  _480
REMARK  194  A    between atoms: _480  and  _481
REMARK  195  A    between atoms: _485  and  _486
REMARK  196  A    between atoms: _491  and  _493
REMARK  197  A    between atoms: _493  and  _494
REMARK  198  A    between atoms: _493  and  _496
REMARK  199  A    between atoms: _496  and  _497
REMARK  200  A    between atoms: _497  and  _498
REMARK  201  A    between atoms: _501  and  _503
REMARK  202  A    between atoms: _503  and  _504
REMARK  203  A    between atoms: _503  and  _506
REMARK  204  A    between atoms: _509  and  _511
REMARK  205  A    between atoms: _511  and  _512
REMARK  206  A    between atoms: _511  and  _514
REMARK  207  A    between atoms: _514  and  _515
REMARK  208  A    between atoms: _519  and  _520
REMARK  209  A    between atoms: _525  and  _527
REMARK  210  A    between atoms: _527  and  _528
REMARK  211  A    between atoms: _527  and  _530
REMARK  212  A    between atoms: _530  and  _531
REMARK  213  A    between atoms: _534  and  _536
REMARK  214  A    between atoms: _536  and  _537
REMARK  215  A    between atoms: _540  and  _542
REMARK  216  A    between atoms: _542  and  _543
REMARK  217  A    between atoms: _542  and  _545
REMARK  218  A    between atoms: _545  and  _546
REMARK  219  A    between atoms: _549  and  _551
REMARK  220  A    between atoms: _551  and  _552
REMARK  221  A    between atoms: _551  and  _554
REMARK  222  A    between atoms: _554  and  _555
REMARK  223  A    between atoms: _557  and  _559
REMARK  224  A    between atoms: _559  and  _560
REMARK  225  A    between atoms: _562  and  _564
REMARK  226  A    between atoms: _564  and  _565
REMARK  227  A    between atoms: _564  and  _567
REMARK  228  A    between atoms: _567  and  _568
REMARK  229  A    between atoms: _571  and  _573
REMARK  230  A    between atoms: _573  and  _574
REMARK  231  A    between atoms: _573  and  _576
REMARK                            x       y       z     vdW  Elec       q    Type
REMARK                         _______ _______ _______ _____ _____    ______ ____
ROOT
ATOM      1  O   HOH     1       6.854 -10.323  19.548  0.00  0.00    +0.000 OA
ENDROOT
TORSDOF 0
REMARK  Name = ../refined-set-2016/4xu3/4xu3_pocket.pdb
REMARK  231 active torsions:
REMARK  status: ('A' for Active; 'I' for Inactive)
REMARK    1  A    between atoms: _1  and  _3
REMARK    2  A    between atoms: _3  and  _4
REMARK    3  A    between atoms: _3  and  _6
REMARK    4  A    between atoms: _6  and  _7
REMARK    5  A    between atoms: _10  and  _12
REMARK    6  A    between atoms: _12  and  _13
REMARK    7  A    between atoms: _15  and  _17
REMARK    8  A    between atoms: _17  and  _18
REMARK    9  A    between atoms: _17  and  _20
REMARK   10  A    between atoms: _20  and  _21
REMARK   11  A    between atoms: _23  and  _25
REMARK   12  A    between atoms: _25  and  _26
REMARK   13  A    between atoms: _25  and  _28
REMARK   14  A    between atoms: _28  and  _29
REMARK   15  A    between atoms: _32  and  _34
REMARK   16  A    between atoms: _34  and  _35
REMARK   17  A    between atoms: _34  and  _37
REMARK   18  A    between atoms: _37  and  _38
REMARK   19  A    between atoms: _43  and  _45
REMARK   20  A    between atoms: _45  and  _46
REMARK   21  A    between atoms: _49  and  _51
REMARK   22  A    between atoms: _51  and  _52
REMARK   23  A    between atoms: _51  and  _54
REMARK   24  A    between atoms: _54  and  _55
REMARK   25  A    between atoms: _58  and  _60
REMARK   26  A    between atoms: _60  and  _61
REMARK   27  A    between atoms: _60  and  _63
REMARK   28  A    between atoms: _63  and  _64
REMARK   29  A    between atoms: _67  and  _69
REMARK   30  A    between atoms: _69  and  _70
REMARK   31  A    between atoms: _69  and  _72
REMARK   32  A    between atoms: _72  and  _73
REMARK   33  A    between atoms: _76  and  _78
REMARK   34  A    between atoms: _78  and  _79
REMARK   35  A    between atoms: _82  and  _84
REMARK   36  A    between atoms: _84  and  _85
REMARK   37  A    between atoms: _84  and  _87
REMARK   38  A    between atoms: _87  and  _88
REMARK   39  A    between atoms: _88  and  _89
REMARK   40  A    between atoms: _94  and  _96
REMARK   41  A    between atoms: _96  and  _97
REMARK   42  A    between atoms: _96  and  _99
REMARK   43  A    between atoms: _99  and  _100
REMARK   44  A    between atoms: _103  and  _105
REMARK   45  A    between atoms: _105  and  _106
REMARK   46  A    between atoms: _109  and  _111
REMARK   47  A    between atoms: _111  and  _112
REMARK   48  A    between atoms: _114  and  _116
REMARK   49  A    between atoms: _116  and  _117
REMARK   50  A    between atoms: _116  and  _119
REMARK   51  A    between atoms: _119  and  _120
REMARK   52  A    between atoms: _120  and  _121
REMARK   53  A    between atoms: _121  and  _122
REMARK   54  A    between atoms: _131  and  _133
REMARK   55  A    between atoms: _133  and  _134
REMARK   56  A    between atoms: _136  and  _138
REMARK   57  A    between atoms: _138  and  _139
REMARK   58  A    between atoms: _138  and  _141
REMARK   59  A    between atoms: _141  and  _142
REMARK   60  A    between atoms: _142  and  _143
REMARK   61  A    between atoms: _143  and  _144
REMARK   62  A    between atoms: _153  and  _155
REMARK   63  A    between atoms: _155  and  _156
REMARK   64  A    between atoms: _155  and  _158
REMARK   65  A    between atoms: _158  and  _159
REMARK   66  A    between atoms: _164  and  _166
REMARK   67  A    between atoms: _166  and  _167
REMARK   68  A    between atoms: _169  and  _171
REMARK   69  A    between atoms: _171  and  _172
REMARK   70  A    between atoms: _171  and  _174
REMARK   71  A    between atoms: _174  and  _175
REMARK   72  A    between atoms: _175  and  _176
REMARK   73  A    between atoms: _176  and  _177
REMARK   74  A    between atoms: _186  and  _188
REMARK   75  A    between atoms: _188  and  _189
REMARK   76  A    between atoms: _191  and  _193
REMARK   77  A    between atoms: _193  and  _194
REMARK   78  A    between atoms: _193  and  _196
REMARK   79  A    between atoms: _196  and  _197
REMARK   80  A    between atoms: _207  and  _209
REMARK   81  A    between atoms: _209  and  _210
REMARK   82  A    between atoms: _213  and  _215
REMARK   83  A    between atoms: _215  and  _216
REMARK   84  A    between atoms: _219  and  _221
REMARK   85  A    between atoms: _221  and  _222
REMARK   86  A    between atoms: _221  and  _224
REMARK   87  A    between atoms: _224  and  _225
REMARK   88  A    between atoms: _228  and  _230
REMARK   89  A    between atoms: _230  and  _231
REMARK   90  A    between atoms: _230  and  _233
REMARK   91  A    between atoms: _233  and  _234
REMARK   92  A    between atoms: _234  and  _235
REMARK   93  A    between atoms: _240  and  _242
REMARK   94  A    between atoms: _242  and  _243
REMARK   95  A    between atoms: _242  and  _245
REMARK   96  A    between atoms: _245  and  _246
REMARK   97  A    between atoms: _249  and  _251
REMARK   98  A    between atoms: _251  and  _252
REMARK   99  A    between atoms: _251  and  _254
REMARK  100  A    between atoms: _254  and  _255
REMARK  101  A    between atoms: _258  and  _260
REMARK  102  A    between atoms: _260  and  _261
REMARK  103  A    between atoms: _260  and  _263
REMARK  104  A    between atoms: _263  and  _264
REMARK  105  A    between atoms: _267  and  _269
REMARK  106  A    between atoms: _269  and  _270
REMARK  107  A    between atoms: _269  and  _272
REMARK  108  A    between atoms: _272  and  _273
REMARK  109  A    between atoms: _275  and  _277
REMARK  110  A    between atoms: _277  and  _278
REMARK  111  A    between atoms: _277  and  _280
REMARK  112  A    between atoms: _283  and  _285
REMARK  113  A    between atoms: _285  and  _286
REMARK  114  A    between atoms: _285  and  _288
REMARK  115  A    between atoms: _288  and  _289
REMARK  116  A    between atoms: _289  and  _290
REMARK  117  A    between atoms: _290  and  _291
REMARK  118  A    between atoms: _291  and  _292
REMARK  119  A    between atoms: _297  and  _298
REMARK  120  A    between atoms: _303  and  _305
REMARK  121  A    between atoms: _305  and  _306
REMARK  122  A    between atoms: _305  and  _308
REMARK  123  A    between atoms: _308  and  _309
REMARK  124  A    between atoms: _314  and  _316
REMARK  125  A    between atoms: _316  and  _317
REMARK  126  A    between atoms: _316  and  _319
REMARK  127  A    between atoms: _319  and  _320
REMARK  128  A    between atoms: _323  and  _325
REMARK  129  A    between atoms: _325  and  _326
REMARK  130  A    between atoms: _325  and  _328
REMARK  131  A    between atoms: _331  and  _333
REMARK  132  A    between atoms: _333  and  _334
REMARK  133  A    between atoms: _336  and  _338
REMARK  134  A    between atoms: _338  and  _339
REMARK  135  A    between atoms: _338  and  _341
REMARK  136  A    between atoms: _341  and  _342
REMARK  137  A    between atoms: _342  and  _343
REMARK  138  A    between atoms: _343  and  _344
REMARK  139  A    between atoms: _344  and  _345
REMARK  140  A    between atoms: _349  and  _351
REMARK  141  A    between atoms: _351  and  _352
REMARK  142  A    between atoms: _351  and  _354
REMARK  143  A    between atoms: _354  and  _355
REMARK  144  A    between atoms: _358  and  _360
REMARK  145  A    between atoms: _360  and  _361
REMARK  146  A    between atoms: _364  and  _366
REMARK  147  A    between atoms: _366  and  _367
REMARK  148  A    between atoms: _369  and  _371
REMARK  149  A    between atoms: _371  and  _372
REMARK  150  A    between atoms: _371  and  _374
REMARK  151  A    between atoms: _374  and  _375
REMARK  152  A    between atoms: _378  and  _380
REMARK  153  A    between atoms: _380  and  _381
REMARK  154  A    between atoms: _380  and  _383
REMARK  155  A    between atoms: _383  and  _384
REMARK  156  A    between atoms: _387  and  _389
REMARK  157  A    between atoms: _389  and  _390
REMARK  158  A    between atoms: _393  and  _395
REMARK  159  A    between atoms: _395  and  _396
REMARK  160  A    between atoms: _395  and  _398
REMARK  161  A    between atoms: _398  and  _399
REMARK  162  A    between atoms: _399  and  _400
REMARK  163  A    between atoms: _403  and  _405
REMARK  164  A    between atoms: _405  and  _406
REMARK  165  A    between atoms: _405  and  _408
REMARK  166  A    between atoms: _411  and  _413
REMARK  167  A    between atoms: _413  and  _414
REMARK  168  A    between atoms: _413  and  _416
REMARK  169  A    between atoms: _416  and  _417
REMARK  170  A    between atoms: _420  and  _422
REMARK  171  A    between atoms: _422  and  _423
REMARK  172  A    between atoms: _425  and  _427
REMARK  173  A    between atoms: _427  and  _428
REMARK  174  A    between atoms: _427  and  _430
REMARK  175  A    between atoms: _433  and  _435
REMARK  176  A    between atoms: _435  and  _436
REMARK  177  A    between atoms: _438  and  _440
REMARK  178  A    between atoms: _440  and  _441
REMARK  179  A    between atoms: _440  and  _443
REMARK  180  A    between atoms: _443  and  _444
REMARK  181  A    between atoms: _447  and  _449
REMARK  182  A    between atoms: _449  and  _450
REMARK  183  A    between atoms: _449  and  _452
REMARK  184  A    between atoms: _452  and  _453
REMARK  185  A    between atoms: _458  and  _460
REMARK  186  A    between atoms: _460  and  _461
REMARK  187  A    between atoms: _460  and  _463
REMARK  188  A    between atoms: _466  and  _468
REMARK  189  A    between atoms: _468  and  _469
REMARK  190  A    between atoms: _468  and  _471
REMARK  191  A    between atoms: _471  and  _472
REMARK  192  A    between atoms: _472  and  _473
REMARK  193  A    between atoms: _478  and  _480
REMARK  194  A    between atoms: _480  and  _481
REMARK  195  A    between atoms: _485  and  _486
REMARK  196  A    between atoms: _491  and  _493
REMARK  197  A    between atoms: _493  and  _494
REMARK  198  A    between atoms: _493  and  _496
REMARK  199  A    between atoms: _496  and  _497
REMARK  200  A    between atoms: _497  and  _498
REMARK  201  A    between atoms: _501  and  _503
REMARK  202  A    between atoms: _503  and  _504
REMARK  203  A    between atoms: _503  and  _506
REMARK  204  A    between atoms: _509  and  _511
REMARK  205  A    between atoms: _511  and  _512
REMARK  206  A    between atoms: _511  and  _514
REMARK  207  A    between atoms: _514  and  _515
REMARK  208  A    between atoms: _519  and  _520
REMARK  209  A    between atoms: _525  and  _527
REMARK  210  A    between atoms: _527  and  _528
REMARK  211  A    between atoms: _527  and  _530
REMARK  212  A    between atoms: _530  and  _531
REMARK  213  A    between atoms: _534  and  _536
REMARK  214  A    between atoms: _536  and  _537
REMARK  215  A    between atoms: _540  and  _542
REMARK  216  A    between atoms: _542  and  _543
REMARK  217  A    between atoms: _542  and  _545
REMARK  218  A    between atoms: _545  and  _546
REMARK  219  A    between atoms: _549  and  _551
REMARK  220  A    between atoms: _551  and  _552
REMARK  221  A    between atoms: _551  and  _554
REMARK  222  A    between atoms: _554  and  _555
REMARK  223  A    between atoms: _557  and  _559
REMARK  224  A    between atoms: _559  and  _560
REMARK  225  A    between atoms: _562  and  _564
REMARK  226  A    between atoms: _564  and  _565
REMARK  227  A    between atoms: _564  and  _567
REMARK  228  A    between atoms: _567  and  _568
REMARK  229  A    between atoms: _571  and  _573
REMARK  230  A    between atoms: _573  and  _574
REMARK  231  A    between atoms: _573  and  _576
REMARK                            x       y       z     vdW  Elec       q    Type
REMARK                         _______ _______ _______ _____ _____    ______ ____
ROOT
ATOM      1  O   HOH     1      -9.012  -5.456   0.944  0.00  0.00    +0.000 OA
ENDROOT
TORSDOF 0
REMARK  Name = ../refined-set-2016/4xu3/4xu3_pocket.pdb
REMARK  231 active torsions:
REMARK  status: ('A' for Active; 'I' for Inactive)
REMARK    1  A    between atoms: _1  and  _3
REMARK    2  A    between atoms: _3  and  _4
REMARK    3  A    between atoms: _3  and  _6
REMARK    4  A    between atoms: _6  and  _7
REMARK    5  A    between atoms: _10  and  _12
REMARK    6  A    between atoms: _12  and  _13
REMARK    7  A    between atoms: _15  and  _17
REMARK    8  A    between atoms: _17  and  _18
REMARK    9  A    between atoms: _17  and  _20
REMARK   10  A    between atoms: _20  and  _21
REMARK   11  A    between atoms: _23  and  _25
REMARK   12  A    between atoms: _25  and  _26
REMARK   13  A    between atoms: _25  and  _28
REMARK   14  A    between atoms: _28  and  _29
REMARK   15  A    between atoms: _32  and  _34
REMARK   16  A    between atoms: _34  and  _35
REMARK   17  A    between atoms: _34  and  _37
REMARK   18  A    between atoms: _37  and  _38
REMARK   19  A    between atoms: _43  and  _45
REMARK   20  A    between atoms: _45  and  _46
REMARK   21  A    between atoms: _49  and  _51
REMARK   22  A    between atoms: _51  and  _52
REMARK   23  A    between atoms: _51  and  _54
REMARK   24  A    between atoms: _54  and  _55
REMARK   25  A    between atoms: _58  and  _60
REMARK   26  A    between atoms: _60  and  _61
REMARK   27  A    between atoms: _60  and  _63
REMARK   28  A    between atoms: _63  and  _64
REMARK   29  A    between atoms: _67  and  _69
REMARK   30  A    between atoms: _69  and  _70
REMARK   31  A    between atoms: _69  and  _72
REMARK   32  A    between atoms: _72  and  _73
REMARK   33  A    between atoms: _76  and  _78
REMARK   34  A    between atoms: _78  and  _79
REMARK   35  A    between atoms: _82  and  _84
REMARK   36  A    between atoms: _84  and  _85
REMARK   37  A    between atoms: _84  and  _87
REMARK   38  A    between atoms: _87  and  _88
REMARK   39  A    between atoms: _88  and  _89
REMARK   40  A    between atoms: _94  and  _96
REMARK   41  A    between atoms: _96  and  _97
REMARK   42  A    between atoms: _96  and  _99
REMARK   43  A    between atoms: _99  and  _100
REMARK   44  A    between atoms: _103  and  _105
REMARK   45  A    between atoms: _105  and  _106
REMARK   46  A    between atoms: _109  and  _111
REMARK   47  A    between atoms: _111  and  _112
REMARK   48  A    between atoms: _114  and  _116
REMARK   49  A    between atoms: _116  and  _117
REMARK   50  A    between atoms: _116  and  _119
REMARK   51  A    between atoms: _119  and  _120
REMARK   52  A    between atoms: _120  and  _121
REMARK   53  A    between atoms: _121  and  _122
REMARK   54  A    between atoms: _131  and  _133
REMARK   55  A    between atoms: _133  and  _134
REMARK   56  A    between atoms: _136  and  _138
REMARK   57  A    between atoms: _138  and  _139
REMARK   58  A    between atoms: _138  and  _141
REMARK   59  A    between atoms: _141  and  _142
REMARK   60  A    between atoms: _142  and  _143
REMARK   61  A    between atoms: _143  and  _144
REMARK   62  A    between atoms: _153  and  _155
REMARK   63  A    between atoms: _155  and  _156
REMARK   64  A    between atoms: _155  and  _158
REMARK   65  A    between atoms: _158  and  _159
REMARK   66  A    between atoms: _164  and  _166
REMARK   67  A    between atoms: _166  and  _167
REMARK   68  A    between atoms: _169  and  _171
REMARK   69  A    between atoms: _171  and  _172
REMARK   70  A    between atoms: _171  and  _174
REMARK   71  A    between atoms: _174  and  _175
REMARK   72  A    between atoms: _175  and  _176
REMARK   73  A    between atoms: _176  and  _177
REMARK   74  A    between atoms: _186  and  _188
REMARK   75  A    between atoms: _188  and  _189
REMARK   76  A    between atoms: _191  and  _193
REMARK   77  A    between atoms: _193  and  _194
REMARK   78  A    between atoms: _193  and  _196
REMARK   79  A    between atoms: _196  and  _197
REMARK   80  A    between atoms: _207  and  _209
REMARK   81  A    between atoms: _209  and  _210
REMARK   82  A    between atoms: _213  and  _215
REMARK   83  A    between atoms: _215  and  _216
REMARK   84  A    between atoms: _219  and  _221
REMARK   85  A    between atoms: _221  and  _222
REMARK   86  A    between atoms: _221  and  _224
REMARK   87  A    between atoms: _224  and  _225
REMARK   88  A    between atoms: _228  and  _230
REMARK   89  A    between atoms: _230  and  _231
REMARK   90  A    between atoms: _230  and  _233
REMARK   91  A    between atoms: _233  and  _234
REMARK   92  A    between atoms: _234  and  _235
REMARK   93  A    between atoms: _240  and  _242
REMARK   94  A    between atoms: _242  and  _243
REMARK   95  A    between atoms: _242  and  _245
REMARK   96  A    between atoms: _245  and  _246
REMARK   97  A    between atoms: _249  and  _251
REMARK   98  A    between atoms: _251  and  _252
REMARK   99  A    between atoms: _251  and  _254
REMARK  100  A    between atoms: _254  and  _255
REMARK  101  A    between atoms: _258  and  _260
REMARK  102  A    between atoms: _260  and  _261
REMARK  103  A    between atoms: _260  and  _263
REMARK  104  A    between atoms: _263  and  _264
REMARK  105  A    between atoms: _267  and  _269
REMARK  106  A    between atoms: _269  and  _270
REMARK  107  A    between atoms: _269  and  _272
REMARK  108  A    between atoms: _272  and  _273
REMARK  109  A    between atoms: _275  and  _277
REMARK  110  A    between atoms: _277  and  _278
REMARK  111  A    between atoms: _277  and  _280
REMARK  112  A    between atoms: _283  and  _285
REMARK  113  A    between atoms: _285  and  _286
REMARK  114  A    between atoms: _285  and  _288
REMARK  115  A    between atoms: _288  and  _289
REMARK  116  A    between atoms: _289  and  _290
REMARK  117  A    between atoms: _290  and  _291
REMARK  118  A    between atoms: _291  and  _292
REMARK  119  A    between atoms: _297  and  _298
REMARK  120  A    between atoms: _303  and  _305
REMARK  121  A    between atoms: _305  and  _306
REMARK  122  A    between atoms: _305  and  _308
REMARK  123  A    between atoms: _308  and  _309
REMARK  124  A    between atoms: _314  and  _316
REMARK  125  A    between atoms: _316  and  _317
REMARK  126  A    between atoms: _316  and  _319
REMARK  127  A    between atoms: _319  and  _320
REMARK  128  A    between atoms: _323  and  _325
REMARK  129  A    between atoms: _325  and  _326
REMARK  130  A    between atoms: _325  and  _328
REMARK  131  A    between atoms: _331  and  _333
REMARK  132  A    between atoms: _333  and  _334
REMARK  133  A    between atoms: _336  and  _338
REMARK  134  A    between atoms: _338  and  _339
REMARK  135  A    between atoms: _338  and  _341
REMARK  136  A    between atoms: _341  and  _342
REMARK  137  A    between atoms: _342  and  _343
REMARK  138  A    between atoms: _343  and  _344
REMARK  139  A    between atoms: _344  and  _345
REMARK  140  A    between atoms: _349  and  _351
REMARK  141  A    between atoms: _351  and  _352
REMARK  142  A    between atoms: _351  and  _354
REMARK  143  A    between atoms: _354  and  _355
REMARK  144  A    between atoms: _358  and  _360
REMARK  145  A    between atoms: _360  and  _361
REMARK  146  A    between atoms: _364  and  _366
REMARK  147  A    between atoms: _366  and  _367
REMARK  148  A    between atoms: _369  and  _371
REMARK  149  A    between atoms: _371  and  _372
REMARK  150  A    between atoms: _371  and  _374
REMARK  151  A    between atoms: _374  and  _375
REMARK  152  A    between atoms: _378  and  _380
REMARK  153  A    between atoms: _380  and  _381
REMARK  154  A    between atoms: _380  and  _383
REMARK  155  A    between atoms: _383  and  _384
REMARK  156  A    between atoms: _387  and  _389
REMARK  157  A    between atoms: _389  and  _390
REMARK  158  A    between atoms: _393  and  _395
REMARK  159  A    between atoms: _395  and  _396
REMARK  160  A    between atoms: _395  and  _398
REMARK  161  A    between atoms: _398  and  _399
REMARK  162  A    between atoms: _399  and  _400
REMARK  163  A    between atoms: _403  and  _405
REMARK  164  A    between atoms: _405  and  _406
REMARK  165  A    between atoms: _405  and  _408
REMARK  166  A    between atoms: _411  and  _413
REMARK  167  A    between atoms: _413  and  _414
REMARK  168  A    between atoms: _413  and  _416
REMARK  169  A    between atoms: _416  and  _417
REMARK  170  A    between atoms: _420  and  _422
REMARK  171  A    between atoms: _422  and  _423
REMARK  172  A    between atoms: _425  and  _427
REMARK  173  A    between atoms: _427  and  _428
REMARK  174  A    between atoms: _427  and  _430
REMARK  175  A    between atoms: _433  and  _435
REMARK  176  A    between atoms: _435  and  _436
REMARK  177  A    between atoms: _438  and  _440
REMARK  178  A    between atoms: _440  and  _441
REMARK  179  A    between atoms: _440  and  _443
REMARK  180  A    between atoms: _443  and  _444
REMARK  181  A    between atoms: _447  and  _449
REMARK  182  A    between atoms: _449  and  _450
REMARK  183  A    between atoms: _449  and  _452
REMARK  184  A    between atoms: _452  and  _453
REMARK  185  A    between atoms: _458  and  _460
REMARK  186  A    between atoms: _460  and  _461
REMARK  187  A    between atoms: _460  and  _463
REMARK  188  A    between atoms: _466  and  _468
REMARK  189  A    between atoms: _468  and  _469
REMARK  190  A    between atoms: _468  and  _471
REMARK  191  A    between atoms: _471  and  _472
REMARK  192  A    between atoms: _472  and  _473
REMARK  193  A    between atoms: _478  and  _480
REMARK  194  A    between atoms: _480  and  _481
REMARK  195  A    between atoms: _485  and  _486
REMARK  196  A    between atoms: _491  and  _493
REMARK  197  A    between atoms: _493  and  _494
REMARK  198  A    between atoms: _493  and  _496
REMARK  199  A    between atoms: _496  and  _497
REMARK  200  A    between atoms: _497  and  _498
REMARK  201  A    between atoms: _501  and  _503
REMARK  202  A    between atoms: _503  and  _504
REMARK  203  A    between atoms: _503  and  _506
REMARK  204  A    between atoms: _509  and  _511
REMARK  205  A    between atoms: _511  and  _512
REMARK  206  A    between atoms: _511  and  _514
REMARK  207  A    between atoms: _514  and  _515
REMARK  208  A    between atoms: _519  and  _520
REMARK  209  A    between atoms: _525  and  _527
REMARK  210  A    between atoms: _527  and  _528
REMARK  211  A    between atoms: _527  and  _530
REMARK  212  A    between atoms: _530  and  _531
REMARK  213  A    between atoms: _534  and  _536
REMARK  214  A    between atoms: _536  and  _537
REMARK  215  A    between atoms: _540  and  _542
REMARK  216  A    between atoms: _542  and  _543
REMARK  217  A    between atoms: _542  and  _545
REMARK  218  A    between atoms: _545  and  _546
REMARK  219  A    between atoms: _549  and  _551
REMARK  220  A    between atoms: _551  and  _552
REMARK  221  A    between atoms: _551  and  _554
REMARK  222  A    between atoms: _554  and  _555
REMARK  223  A    between atoms: _557  and  _559
REMARK  224  A    between atoms: _559  and  _560
REMARK  225  A    between atoms: _562  and  _564
REMARK  226  A    between atoms: _564  and  _565
REMARK  227  A    between atoms: _564  and  _567
REMARK  228  A    between atoms: _567  and  _568
REMARK  229  A    between atoms: _571  and  _573
REMARK  230  A    between atoms: _573  and  _574
REMARK  231  A    between atoms: _573  and  _576
REMARK                            x       y       z     vdW  Elec       q    Type
REMARK                         _______ _______ _______ _____ _____    ______ ____
ROOT
ATOM      1  O   HOH     1      -8.729  -1.385   1.219  0.00  0.00    +0.000 OA
ENDROOT
TORSDOF 0
REMARK  Name = ../refined-set-2016/4xu3/4xu3_pocket.pdb
REMARK  231 active torsions:
REMARK  status: ('A' for Active; 'I' for Inactive)
REMARK    1  A    between atoms: _1  and  _3
REMARK    2  A    between atoms: _3  and  _4
REMARK    3  A    between atoms: _3  and  _6
REMARK    4  A    between atoms: _6  and  _7
REMARK    5  A    between atoms: _10  and  _12
REMARK    6  A    between atoms: _12  and  _13
REMARK    7  A    between atoms: _15  and  _17
REMARK    8  A    between atoms: _17  and  _18
REMARK    9  A    between atoms: _17  and  _20
REMARK   10  A    between atoms: _20  and  _21
REMARK   11  A    between atoms: _23  and  _25
REMARK   12  A    between atoms: _25  and  _26
REMARK   13  A    between atoms: _25  and  _28
REMARK   14  A    between atoms: _28  and  _29
REMARK   15  A    between atoms: _32  and  _34
REMARK   16  A    between atoms: _34  and  _35
REMARK   17  A    between atoms: _34  and  _37
REMARK   18  A    between atoms: _37  and  _38
REMARK   19  A    between atoms: _43  and  _45
REMARK   20  A    between atoms: _45  and  _46
REMARK   21  A    between atoms: _49  and  _51
REMARK   22  A    between atoms: _51  and  _52
REMARK   23  A    between atoms: _51  and  _54
REMARK   24  A    between atoms: _54  and  _55
REMARK   25  A    between atoms: _58  and  _60
REMARK   26  A    between atoms: _60  and  _61
REMARK   27  A    between atoms: _60  and  _63
REMARK   28  A    between atoms: _63  and  _64
REMARK   29  A    between atoms: _67  and  _69
REMARK   30  A    between atoms: _69  and  _70
REMARK   31  A    between atoms: _69  and  _72
REMARK   32  A    between atoms: _72  and  _73
REMARK   33  A    between atoms: _76  and  _78
REMARK   34  A    between atoms: _78  and  _79
REMARK   35  A    between atoms: _82  and  _84
REMARK   36  A    between atoms: _84  and  _85
REMARK   37  A    between atoms: _84  and  _87
REMARK   38  A    between atoms: _87  and  _88
REMARK   39  A    between atoms: _88  and  _89
REMARK   40  A    between atoms: _94  and  _96
REMARK   41  A    between atoms: _96  and  _97
REMARK   42  A    between atoms: _96  and  _99
REMARK   43  A    between atoms: _99  and  _100
REMARK   44  A    between atoms: _103  and  _105
REMARK   45  A    between atoms: _105  and  _106
REMARK   46  A    between atoms: _109  and  _111
REMARK   47  A    between atoms: _111  and  _112
REMARK   48  A    between atoms: _114  and  _116
REMARK   49  A    between atoms: _116  and  _117
REMARK   50  A    between atoms: _116  and  _119
REMARK   51  A    between atoms: _119  and  _120
REMARK   52  A    between atoms: _120  and  _121
REMARK   53  A    between atoms: _121  and  _122
REMARK   54  A    between atoms: _131  and  _133
REMARK   55  A    between atoms: _133  and  _134
REMARK   56  A    between atoms: _136  and  _138
REMARK   57  A    between atoms: _138  and  _139
REMARK   58  A    between atoms: _138  and  _141
REMARK   59  A    between atoms: _141  and  _142
REMARK   60  A    between atoms: _142  and  _143
REMARK   61  A    between atoms: _143  and  _144
REMARK   62  A    between atoms: _153  and  _155
REMARK   63  A    between atoms: _155  and  _156
REMARK   64  A    between atoms: _155  and  _158
REMARK   65  A    between atoms: _158  and  _159
REMARK   66  A    between atoms: _164  and  _166
REMARK   67  A    between atoms: _166  and  _167
REMARK   68  A    between atoms: _169  and  _171
REMARK   69  A    between atoms: _171  and  _172
REMARK   70  A    between atoms: _171  and  _174
REMARK   71  A    between atoms: _174  and  _175
REMARK   72  A    between atoms: _175  and  _176
REMARK   73  A    between atoms: _176  and  _177
REMARK   74  A    between atoms: _186  and  _188
REMARK   75  A    between atoms: _188  and  _189
REMARK   76  A    between atoms: _191  and  _193
REMARK   77  A    between atoms: _193  and  _194
REMARK   78  A    between atoms: _193  and  _196
REMARK   79  A    between atoms: _196  and  _197
REMARK   80  A    between atoms: _207  and  _209
REMARK   81  A    between atoms: _209  and  _210
REMARK   82  A    between atoms: _213  and  _215
REMARK   83  A    between atoms: _215  and  _216
REMARK   84  A    between atoms: _219  and  _221
REMARK   85  A    between atoms: _221  and  _222
REMARK   86  A    between atoms: _221  and  _224
REMARK   87  A    between atoms: _224  and  _225
REMARK   88  A    between atoms: _228  and  _230
REMARK   89  A    between atoms: _230  and  _231
REMARK   90  A    between atoms: _230  and  _233
REMARK   91  A    between atoms: _233  and  _234
REMARK   92  A    between atoms: _234  and  _235
REMARK   93  A    between atoms: _240  and  _242
REMARK   94  A    between atoms: _242  and  _243
REMARK   95  A    between atoms: _242  and  _245
REMARK   96  A    between atoms: _245  and  _246
REMARK   97  A    between atoms: _249  and  _251
REMARK   98  A    between atoms: _251  and  _252
REMARK   99  A    between atoms: _251  and  _254
REMARK  100  A    between atoms: _254  and  _255
REMARK  101  A    between atoms: _258  and  _260
REMARK  102  A    between atoms: _260  and  _261
REMARK  103  A    between atoms: _260  and  _263
REMARK  104  A    between atoms: _263  and  _264
REMARK  105  A    between atoms: _267  and  _269
REMARK  106  A    between atoms: _269  and  _270
REMARK  107  A    between atoms: _269  and  _272
REMARK  108  A    between atoms: _272  and  _273
REMARK  109  A    between atoms: _275  and  _277
REMARK  110  A    between atoms: _277  and  _278
REMARK  111  A    between atoms: _277  and  _280
REMARK  112  A    between atoms: _283  and  _285
REMARK  113  A    between atoms: _285  and  _286
REMARK  114  A    between atoms: _285  and  _288
REMARK  115  A    between atoms: _288  and  _289
REMARK  116  A    between atoms: _289  and  _290
REMARK  117  A    between atoms: _290  and  _291
REMARK  118  A    between atoms: _291  and  _292
REMARK  119  A    between atoms: _297  and  _298
REMARK  120  A    between atoms: _303  and  _305
REMARK  121  A    between atoms: _305  and  _306
REMARK  122  A    between atoms: _305  and  _308
REMARK  123  A    between atoms: _308  and  _309
REMARK  124  A    between atoms: _314  and  _316
REMARK  125  A    between atoms: _316  and  _317
REMARK  126  A    between atoms: _316  and  _319
REMARK  127  A    between atoms: _319  and  _320
REMARK  128  A    between atoms: _323  and  _325
REMARK  129  A    between atoms: _325  and  _326
REMARK  130  A    between atoms: _325  and  _328
REMARK  131  A    between atoms: _331  and  _333
REMARK  132  A    between atoms: _333  and  _334
REMARK  133  A    between atoms: _336  and  _338
REMARK  134  A    between atoms: _338  and  _339
REMARK  135  A    between atoms: _338  and  _341
REMARK  136  A    between atoms: _341  and  _342
REMARK  137  A    between atoms: _342  and  _343
REMARK  138  A    between atoms: _343  and  _344
REMARK  139  A    between atoms: _344  and  _345
REMARK  140  A    between atoms: _349  and  _351
REMARK  141  A    between atoms: _351  and  _352
REMARK  142  A    between atoms: _351  and  _354
REMARK  143  A    between atoms: _354  and  _355
REMARK  144  A    between atoms: _358  and  _360
REMARK  145  A    between atoms: _360  and  _361
REMARK  146  A    between atoms: _364  and  _366
REMARK  147  A    between atoms: _366  and  _367
REMARK  148  A    between atoms: _369  and  _371
REMARK  149  A    between atoms: _371  and  _372
REMARK  150  A    between atoms: _371  and  _374
REMARK  151  A    between atoms: _374  and  _375
REMARK  152  A    between atoms: _378  and  _380
REMARK  153  A    between atoms: _380  and  _381
REMARK  154  A    between atoms: _380  and  _383
REMARK  155  A    between atoms: _383  and  _384
REMARK  156  A    between atoms: _387  and  _389
REMARK  157  A    between atoms: _389  and  _390
REMARK  158  A    between atoms: _393  and  _395
REMARK  159  A    between atoms: _395  and  _396
REMARK  160  A    between atoms: _395  and  _398
REMARK  161  A    between atoms: _398  and  _399
REMARK  162  A    between atoms: _399  and  _400
REMARK  163  A    between atoms: _403  and  _405
REMARK  164  A    between atoms: _405  and  _406
REMARK  165  A    between atoms: _405  and  _408
REMARK  166  A    between atoms: _411  and  _413
REMARK  167  A    between atoms: _413  and  _414
REMARK  168  A    between atoms: _413  and  _416
REMARK  169  A    between atoms: _416  and  _417
REMARK  170  A    between atoms: _420  and  _422
REMARK  171  A    between atoms: _422  and  _423
REMARK  172  A    between atoms: _425  and  _427
REMARK  173  A    between atoms: _427  and  _428
REMARK  174  A    between atoms: _427  and  _430
REMARK  175  A    between atoms: _433  and  _435
REMARK  176  A    between atoms: _435  and  _436
REMARK  177  A    between atoms: _438  and  _440
REMARK  178  A    between atoms: _440  and  _441
REMARK  179  A    between atoms: _440  and  _443
REMARK  180  A    between atoms: _443  and  _444
REMARK  181  A    between atoms: _447  and  _449
REMARK  182  A    between atoms: _449  and  _450
REMARK  183  A    between atoms: _449  and  _452
REMARK  184  A    between atoms: _452  and  _453
REMARK  185  A    between atoms: _458  and  _460
REMARK  186  A    between atoms: _460  and  _461
REMARK  187  A    between atoms: _460  and  _463
REMARK  188  A    between atoms: _466  and  _468
REMARK  189  A    between atoms: _468  and  _469
REMARK  190  A    between atoms: _468  and  _471
REMARK  191  A    between atoms: _471  and  _472
REMARK  192  A    between atoms: _472  and  _473
REMARK  193  A    between atoms: _478  and  _480
REMARK  194  A    between atoms: _480  and  _481
REMARK  195  A    between atoms: _485  and  _486
REMARK  196  A    between atoms: _491  and  _493
REMARK  197  A    between atoms: _493  and  _494
REMARK  198  A    between atoms: _493  and  _496
REMARK  199  A    between atoms: _496  and  _497
REMARK  200  A    between atoms: _497  and  _498
REMARK  201  A    between atoms: _501  and  _503
REMARK  202  A    between atoms: _503  and  _504
REMARK  203  A    between atoms: _503  and  _506
REMARK  204  A    between atoms: _509  and  _511
REMARK  205  A    between atoms: _511  and  _512
REMARK  206  A    between atoms: _511  and  _514
REMARK  207  A    between atoms: _514  and  _515
REMARK  208  A    between atoms: _519  and  _520
REMARK  209  A    between atoms: _525  and  _527
REMARK  210  A    between atoms: _527  and  _528
REMARK  211  A    between atoms: _527  and  _530
REMARK  212  A    between atoms: _530  and  _531
REMARK  213  A    between atoms: _534  and  _536
REMARK  214  A    between atoms: _536  and  _537
REMARK  215  A    between atoms: _540  and  _542
REMARK  216  A    between atoms: _542  and  _543
REMARK  217  A    between atoms: _542  and  _545
REMARK  218  A    between atoms: _545  and  _546
REMARK  219  A    between atoms: _549  and  _551
REMARK  220  A    between atoms: _551  and  _552
REMARK  221  A    between atoms: _551  and  _554
REMARK  222  A    between atoms: _554  and  _555
REMARK  223  A    between atoms: _557  and  _559
REMARK  224  A    between atoms: _559  and  _560
REMARK  225  A    between atoms: _562  and  _564
REMARK  226  A    between atoms: _564  and  _565
REMARK  227  A    between atoms: _564  and  _567
REMARK  228  A    between atoms: _567  and  _568
REMARK  229  A    between atoms: _571  and  _573
REMARK  230  A    between atoms: _573  and  _574
REMARK  231  A    between atoms: _573  and  _576
REMARK                            x       y       z     vdW  Elec       q    Type
REMARK                         _______ _______ _______ _____ _____    ______ ____
ROOT
ATOM      1  O   HOH     1       2.042  -1.968  16.912  0.00  0.00    +0.000 OA
ENDROOT
TORSDOF 0
REMARK  Name = ../refined-set-2016/4xu3/4xu3_pocket.pdb
REMARK  231 active torsions:
REMARK  status: ('A' for Active; 'I' for Inactive)
REMARK    1  A    between atoms: _1  and  _3
REMARK    2  A    between atoms: _3  and  _4
REMARK    3  A    between atoms: _3  and  _6
REMARK    4  A    between atoms: _6  and  _7
REMARK    5  A    between atoms: _10  and  _12
REMARK    6  A    between atoms: _12  and  _13
REMARK    7  A    between atoms: _15  and  _17
REMARK    8  A    between atoms: _17  and  _18
REMARK    9  A    between atoms: _17  and  _20
REMARK   10  A    between atoms: _20  and  _21
REMARK   11  A    between atoms: _23  and  _25
REMARK   12  A    between atoms: _25  and  _26
REMARK   13  A    between atoms: _25  and  _28
REMARK   14  A    between atoms: _28  and  _29
REMARK   15  A    between atoms: _32  and  _34
REMARK   16  A    between atoms: _34  and  _35
REMARK   17  A    between atoms: _34  and  _37
REMARK   18  A    between atoms: _37  and  _38
REMARK   19  A    between atoms: _43  and  _45
REMARK   20  A    between atoms: _45  and  _46
REMARK   21  A    between atoms: _49  and  _51
REMARK   22  A    between atoms: _51  and  _52
REMARK   23  A    between atoms: _51  and  _54
REMARK   24  A    between atoms: _54  and  _55
REMARK   25  A    between atoms: _58  and  _60
REMARK   26  A    between atoms: _60  and  _61
REMARK   27  A    between atoms: _60  and  _63
REMARK   28  A    between atoms: _63  and  _64
REMARK   29  A    between atoms: _67  and  _69
REMARK   30  A    between atoms: _69  and  _70
REMARK   31  A    between atoms: _69  and  _72
REMARK   32  A    between atoms: _72  and  _73
REMARK   33  A    between atoms: _76  and  _78
REMARK   34  A    between atoms: _78  and  _79
REMARK   35  A    between atoms: _82  and  _84
REMARK   36  A    between atoms: _84  and  _85
REMARK   37  A    between atoms: _84  and  _87
REMARK   38  A    between atoms: _87  and  _88
REMARK   39  A    between atoms: _88  and  _89
REMARK   40  A    between atoms: _94  and  _96
REMARK   41  A    between atoms: _96  and  _97
REMARK   42  A    between atoms: _96  and  _99
REMARK   43  A    between atoms: _99  and  _100
REMARK   44  A    between atoms: _103  and  _105
REMARK   45  A    between atoms: _105  and  _106
REMARK   46  A    between atoms: _109  and  _111
REMARK   47  A    between atoms: _111  and  _112
REMARK   48  A    between atoms: _114  and  _116
REMARK   49  A    between atoms: _116  and  _117
REMARK   50  A    between atoms: _116  and  _119
REMARK   51  A    between atoms: _119  and  _120
REMARK   52  A    between atoms: _120  and  _121
REMARK   53  A    between atoms: _121  and  _122
REMARK   54  A    between atoms: _131  and  _133
REMARK   55  A    between atoms: _133  and  _134
REMARK   56  A    between atoms: _136  and  _138
REMARK   57  A    between atoms: _138  and  _139
REMARK   58  A    between atoms: _138  and  _141
REMARK   59  A    between atoms: _141  and  _142
REMARK   60  A    between atoms: _142  and  _143
REMARK   61  A    between atoms: _143  and  _144
REMARK   62  A    between atoms: _153  and  _155
REMARK   63  A    between atoms: _155  and  _156
REMARK   64  A    between atoms: _155  and  _158
REMARK   65  A    between atoms: _158  and  _159
REMARK   66  A    between atoms: _164  and  _166
REMARK   67  A    between atoms: _166  and  _167
REMARK   68  A    between atoms: _169  and  _171
REMARK   69  A    between atoms: _171  and  _172
REMARK   70  A    between atoms: _171  and  _174
REMARK   71  A    between atoms: _174  and  _175
REMARK   72  A    between atoms: _175  and  _176
REMARK   73  A    between atoms: _176  and  _177
REMARK   74  A    between atoms: _186  and  _188
REMARK   75  A    between atoms: _188  and  _189
REMARK   76  A    between atoms: _191  and  _193
REMARK   77  A    between atoms: _193  and  _194
REMARK   78  A    between atoms: _193  and  _196
REMARK   79  A    between atoms: _196  and  _197
REMARK   80  A    between atoms: _207  and  _209
REMARK   81  A    between atoms: _209  and  _210
REMARK   82  A    between atoms: _213  and  _215
REMARK   83  A    between atoms: _215  and  _216
REMARK   84  A    between atoms: _219  and  _221
REMARK   85  A    between atoms: _221  and  _222
REMARK   86  A    between atoms: _221  and  _224
REMARK   87  A    between atoms: _224  and  _225
REMARK   88  A    between atoms: _228  and  _230
REMARK   89  A    between atoms: _230  and  _231
REMARK   90  A    between atoms: _230  and  _233
REMARK   91  A    between atoms: _233  and  _234
REMARK   92  A    between atoms: _234  and  _235
REMARK   93  A    between atoms: _240  and  _242
REMARK   94  A    between atoms: _242  and  _243
REMARK   95  A    between atoms: _242  and  _245
REMARK   96  A    between atoms: _245  and  _246
REMARK   97  A    between atoms: _249  and  _251
REMARK   98  A    between atoms: _251  and  _252
REMARK   99  A    between atoms: _251  and  _254
REMARK  100  A    between atoms: _254  and  _255
REMARK  101  A    between atoms: _258  and  _260
REMARK  102  A    between atoms: _260  and  _261
REMARK  103  A    between atoms: _260  and  _263
REMARK  104  A    between atoms: _263  and  _264
REMARK  105  A    between atoms: _267  and  _269
REMARK  106  A    between atoms: _269  and  _270
REMARK  107  A    between atoms: _269  and  _272
REMARK  108  A    between atoms: _272  and  _273
REMARK  109  A    between atoms: _275  and  _277
REMARK  110  A    between atoms: _277  and  _278
REMARK  111  A    between atoms: _277  and  _280
REMARK  112  A    between atoms: _283  and  _285
REMARK  113  A    between atoms: _285  and  _286
REMARK  114  A    between atoms: _285  and  _288
REMARK  115  A    between atoms: _288  and  _289
REMARK  116  A    between atoms: _289  and  _290
REMARK  117  A    between atoms: _290  and  _291
REMARK  118  A    between atoms: _291  and  _292
REMARK  119  A    between atoms: _297  and  _298
REMARK  120  A    between atoms: _303  and  _305
REMARK  121  A    between atoms: _305  and  _306
REMARK  122  A    between atoms: _305  and  _308
REMARK  123  A    between atoms: _308  and  _309
REMARK  124  A    between atoms: _314  and  _316
REMARK  125  A    between atoms: _316  and  _317
REMARK  126  A    between atoms: _316  and  _319
REMARK  127  A    between atoms: _319  and  _320
REMARK  128  A    between atoms: _323  and  _325
REMARK  129  A    between atoms: _325  and  _326
REMARK  130  A    between atoms: _325  and  _328
REMARK  131  A    between atoms: _331  and  _333
REMARK  132  A    between atoms: _333  and  _334
REMARK  133  A    between atoms: _336  and  _338
REMARK  134  A    between atoms: _338  and  _339
REMARK  135  A    between atoms: _338  and  _341
REMARK  136  A    between atoms: _341  and  _342
REMARK  137  A    between atoms: _342  and  _343
REMARK  138  A    between atoms: _343  and  _344
REMARK  139  A    between atoms: _344  and  _345
REMARK  140  A    between atoms: _349  and  _351
REMARK  141  A    between atoms: _351  and  _352
REMARK  142  A    between atoms: _351  and  _354
REMARK  143  A    between atoms: _354  and  _355
REMARK  144  A    between atoms: _358  and  _360
REMARK  145  A    between atoms: _360  and  _361
REMARK  146  A    between atoms: _364  and  _366
REMARK  147  A    between atoms: _366  and  _367
REMARK  148  A    between atoms: _369  and  _371
REMARK  149  A    between atoms: _371  and  _372
REMARK  150  A    between atoms: _371  and  _374
REMARK  151  A    between atoms: _374  and  _375
REMARK  152  A    between atoms: _378  and  _380
REMARK  153  A    between atoms: _380  and  _381
REMARK  154  A    between atoms: _380  and  _383
REMARK  155  A    between atoms: _383  and  _384
REMARK  156  A    between atoms: _387  and  _389
REMARK  157  A    between atoms: _389  and  _390
REMARK  158  A    between atoms: _393  and  _395
REMARK  159  A    between atoms: _395  and  _396
REMARK  160  A    between atoms: _395  and  _398
REMARK  161  A    between atoms: _398  and  _399
REMARK  162  A    between atoms: _399  and  _400
REMARK  163  A    between atoms: _403  and  _405
REMARK  164  A    between atoms: _405  and  _406
REMARK  165  A    between atoms: _405  and  _408
REMARK  166  A    between atoms: _411  and  _413
REMARK  167  A    between atoms: _413  and  _414
REMARK  168  A    between atoms: _413  and  _416
REMARK  169  A    between atoms: _416  and  _417
REMARK  170  A    between atoms: _420  and  _422
REMARK  171  A    between atoms: _422  and  _423
REMARK  172  A    between atoms: _425  and  _427
REMARK  173  A    between atoms: _427  and  _428
REMARK  174  A    between atoms: _427  and  _430
REMARK  175  A    between atoms: _433  and  _435
REMARK  176  A    between atoms: _435  and  _436
REMARK  177  A    between atoms: _438  and  _440
REMARK  178  A    between atoms: _440  and  _441
REMARK  179  A    between atoms: _440  and  _443
REMARK  180  A    between atoms: _443  and  _444
REMARK  181  A    between atoms: _447  and  _449
REMARK  182  A    between atoms: _449  and  _450
REMARK  183  A    between atoms: _449  and  _452
REMARK  184  A    between atoms: _452  and  _453
REMARK  185  A    between atoms: _458  and  _460
REMARK  186  A    between atoms: _460  and  _461
REMARK  187  A    between atoms: _460  and  _463
REMARK  188  A    between atoms: _466  and  _468
REMARK  189  A    between atoms: _468  and  _469
REMARK  190  A    between atoms: _468  and  _471
REMARK  191  A    between atoms: _471  and  _472
REMARK  192  A    between atoms: _472  and  _473
REMARK  193  A    between atoms: _478  and  _480
REMARK  194  A    between atoms: _480  and  _481
REMARK  195  A    between atoms: _485  and  _486
REMARK  196  A    between atoms: _491  and  _493
REMARK  197  A    between atoms: _493  and  _494
REMARK  198  A    between atoms: _493  and  _496
REMARK  199  A    between atoms: _496  and  _497
REMARK  200  A    between atoms: _497  and  _498
REMARK  201  A    between atoms: _501  and  _503
REMARK  202  A    between atoms: _503  and  _504
REMARK  203  A    between atoms: _503  and  _506
REMARK  204  A    between atoms: _509  and  _511
REMARK  205  A    between atoms: _511  and  _512
REMARK  206  A    between atoms: _511  and  _514
REMARK  207  A    between atoms: _514  and  _515
REMARK  208  A    between atoms: _519  and  _520
REMARK  209  A    between atoms: _525  and  _527
REMARK  210  A    between atoms: _527  and  _528
REMARK  211  A    between atoms: _527  and  _530
REMARK  212  A    between atoms: _530  and  _531
REMARK  213  A    between atoms: _534  and  _536
REMARK  214  A    between atoms: _536  and  _537
REMARK  215  A    between atoms: _540  and  _542
REMARK  216  A    between atoms: _542  and  _543
REMARK  217  A    between atoms: _542  and  _545
REMARK  218  A    between atoms: _545  and  _546
REMARK  219  A    between atoms: _549  and  _551
REMARK  220  A    between atoms: _551  and  _552
REMARK  221  A    between atoms: _551  and  _554
REMARK  222  A    between atoms: _554  and  _555
REMARK  223  A    between atoms: _557  and  _559
REMARK  224  A    between atoms: _559  and  _560
REMARK  225  A    between atoms: _562  and  _564
REMARK  226  A    between atoms: _564  and  _565
REMARK  227  A    between atoms: _564  and  _567
REMARK  228  A    between atoms: _567  and  _568
REMARK  229  A    between atoms: _571  and  _573
REMARK  230  A    between atoms: _573  and  _574
REMARK  231  A    between atoms: _573  and  _576
REMARK                            x       y       z     vdW  Elec       q    Type
REMARK                         _______ _______ _______ _____ _____    ______ ____
ROOT
ATOM      1  O   HOH     1      -8.007  -4.617   3.341  0.00  0.00    +0.000 OA
ENDROOT
TORSDOF 0
REMARK  Name = ../refined-set-2016/4xu3/4xu3_pocket.pdb
REMARK  231 active torsions:
REMARK  status: ('A' for Active; 'I' for Inactive)
REMARK    1  A    between atoms: _1  and  _3
REMARK    2  A    between atoms: _3  and  _4
REMARK    3  A    between atoms: _3  and  _6
REMARK    4  A    between atoms: _6  and  _7
REMARK    5  A    between atoms: _10  and  _12
REMARK    6  A    between atoms: _12  and  _13
REMARK    7  A    between atoms: _15  and  _17
REMARK    8  A    between atoms: _17  and  _18
REMARK    9  A    between atoms: _17  and  _20
REMARK   10  A    between atoms: _20  and  _21
REMARK   11  A    between atoms: _23  and  _25
REMARK   12  A    between atoms: _25  and  _26
REMARK   13  A    between atoms: _25  and  _28
REMARK   14  A    between atoms: _28  and  _29
REMARK   15  A    between atoms: _32  and  _34
REMARK   16  A    between atoms: _34  and  _35
REMARK   17  A    between atoms: _34  and  _37
REMARK   18  A    between atoms: _37  and  _38
REMARK   19  A    between atoms: _43  and  _45
REMARK   20  A    between atoms: _45  and  _46
REMARK   21  A    between atoms: _49  and  _51
REMARK   22  A    between atoms: _51  and  _52
REMARK   23  A    between atoms: _51  and  _54
REMARK   24  A    between atoms: _54  and  _55
REMARK   25  A    between atoms: _58  and  _60
REMARK   26  A    between atoms: _60  and  _61
REMARK   27  A    between atoms: _60  and  _63
REMARK   28  A    between atoms: _63  and  _64
REMARK   29  A    between atoms: _67  and  _69
REMARK   30  A    between atoms: _69  and  _70
REMARK   31  A    between atoms: _69  and  _72
REMARK   32  A    between atoms: _72  and  _73
REMARK   33  A    between atoms: _76  and  _78
REMARK   34  A    between atoms: _78  and  _79
REMARK   35  A    between atoms: _82  and  _84
REMARK   36  A    between atoms: _84  and  _85
REMARK   37  A    between atoms: _84  and  _87
REMARK   38  A    between atoms: _87  and  _88
REMARK   39  A    between atoms: _88  and  _89
REMARK   40  A    between atoms: _94  and  _96
REMARK   41  A    between atoms: _96  and  _97
REMARK   42  A    between atoms: _96  and  _99
REMARK   43  A    between atoms: _99  and  _100
REMARK   44  A    between atoms: _103  and  _105
REMARK   45  A    between atoms: _105  and  _106
REMARK   46  A    between atoms: _109  and  _111
REMARK   47  A    between atoms: _111  and  _112
REMARK   48  A    between atoms: _114  and  _116
REMARK   49  A    between atoms: _116  and  _117
REMARK   50  A    between atoms: _116  and  _119
REMARK   51  A    between atoms: _119  and  _120
REMARK   52  A    between atoms: _120  and  _121
REMARK   53  A    between atoms: _121  and  _122
REMARK   54  A    between atoms: _131  and  _133
REMARK   55  A    between atoms: _133  and  _134
REMARK   56  A    between atoms: _136  and  _138
REMARK   57  A    between atoms: _138  and  _139
REMARK   58  A    between atoms: _138  and  _141
REMARK   59  A    between atoms: _141  and  _142
REMARK   60  A    between atoms: _142  and  _143
REMARK   61  A    between atoms: _143  and  _144
REMARK   62  A    between atoms: _153  and  _155
REMARK   63  A    between atoms: _155  and  _156
REMARK   64  A    between atoms: _155  and  _158
REMARK   65  A    between atoms: _158  and  _159
REMARK   66  A    between atoms: _164  and  _166
REMARK   67  A    between atoms: _166  and  _167
REMARK   68  A    between atoms: _169  and  _171
REMARK   69  A    between atoms: _171  and  _172
REMARK   70  A    between atoms: _171  and  _174
REMARK   71  A    between atoms: _174  and  _175
REMARK   72  A    between atoms: _175  and  _176
REMARK   73  A    between atoms: _176  and  _177
REMARK   74  A    between atoms: _186  and  _188
REMARK   75  A    between atoms: _188  and  _189
REMARK   76  A    between atoms: _191  and  _193
REMARK   77  A    between atoms: _193  and  _194
REMARK   78  A    between atoms: _193  and  _196
REMARK   79  A    between atoms: _196  and  _197
REMARK   80  A    between atoms: _207  and  _209
REMARK   81  A    between atoms: _209  and  _210
REMARK   82  A    between atoms: _213  and  _215
REMARK   83  A    between atoms: _215  and  _216
REMARK   84  A    between atoms: _219  and  _221
REMARK   85  A    between atoms: _221  and  _222
REMARK   86  A    between atoms: _221  and  _224
REMARK   87  A    between atoms: _224  and  _225
REMARK   88  A    between atoms: _228  and  _230
REMARK   89  A    between atoms: _230  and  _231
REMARK   90  A    between atoms: _230  and  _233
REMARK   91  A    between atoms: _233  and  _234
REMARK   92  A    between atoms: _234  and  _235
REMARK   93  A    between atoms: _240  and  _242
REMARK   94  A    between atoms: _242  and  _243
REMARK   95  A    between atoms: _242  and  _245
REMARK   96  A    between atoms: _245  and  _246
REMARK   97  A    between atoms: _249  and  _251
REMARK   98  A    between atoms: _251  and  _252
REMARK   99  A    between atoms: _251  and  _254
REMARK  100  A    between atoms: _254  and  _255
REMARK  101  A    between atoms: _258  and  _260
REMARK  102  A    between atoms: _260  and  _261
REMARK  103  A    between atoms: _260  and  _263
REMARK  104  A    between atoms: _263  and  _264
REMARK  105  A    between atoms: _267  and  _269
REMARK  106  A    between atoms: _269  and  _270
REMARK  107  A    between atoms: _269  and  _272
REMARK  108  A    between atoms: _272  and  _273
REMARK  109  A    between atoms: _275  and  _277
REMARK  110  A    between atoms: _277  and  _278
REMARK  111  A    between atoms: _277  and  _280
REMARK  112  A    between atoms: _283  and  _285
REMARK  113  A    between atoms: _285  and  _286
REMARK  114  A    between atoms: _285  and  _288
REMARK  115  A    between atoms: _288  and  _289
REMARK  116  A    between atoms: _289  and  _290
REMARK  117  A    between atoms: _290  and  _291
REMARK  118  A    between atoms: _291  and  _292
REMARK  119  A    between atoms: _297  and  _298
REMARK  120  A    between atoms: _303  and  _305
REMARK  121  A    between atoms: _305  and  _306
REMARK  122  A    between atoms: _305  and  _308
REMARK  123  A    between atoms: _308  and  _309
REMARK  124  A    between atoms: _314  and  _316
REMARK  125  A    between atoms: _316  and  _317
REMARK  126  A    between atoms: _316  and  _319
REMARK  127  A    between atoms: _319  and  _320
REMARK  128  A    between atoms: _323  and  _325
REMARK  129  A    between atoms: _325  and  _326
REMARK  130  A    between atoms: _325  and  _328
REMARK  131  A    between atoms: _331  and  _333
REMARK  132  A    between atoms: _333  and  _334
REMARK  133  A    between atoms: _336  and  _338
REMARK  134  A    between atoms: _338  and  _339
REMARK  135  A    between atoms: _338  and  _341
REMARK  136  A    between atoms: _341  and  _342
REMARK  137  A    between atoms: _342  and  _343
REMARK  138  A    between atoms: _343  and  _344
REMARK  139  A    between atoms: _344  and  _345
REMARK  140  A    between atoms: _349  and  _351
REMARK  141  A    between atoms: _351  and  _352
REMARK  142  A    between atoms: _351  and  _354
REMARK  143  A    between atoms: _354  and  _355
REMARK  144  A    between atoms: _358  and  _360
REMARK  145  A    between atoms: _360  and  _361
REMARK  146  A    between atoms: _364  and  _366
REMARK  147  A    between atoms: _366  and  _367
REMARK  148  A    between atoms: _369  and  _371
REMARK  149  A    between atoms: _371  and  _372
REMARK  150  A    between atoms: _371  and  _374
REMARK  151  A    between atoms: _374  and  _375
REMARK  152  A    between atoms: _378  and  _380
REMARK  153  A    between atoms: _380  and  _381
REMARK  154  A    between atoms: _380  and  _383
REMARK  155  A    between atoms: _383  and  _384
REMARK  156  A    between atoms: _387  and  _389
REMARK  157  A    between atoms: _389  and  _390
REMARK  158  A    between atoms: _393  and  _395
REMARK  159  A    between atoms: _395  and  _396
REMARK  160  A    between atoms: _395  and  _398
REMARK  161  A    between atoms: _398  and  _399
REMARK  162  A    between atoms: _399  and  _400
REMARK  163  A    between atoms: _403  and  _405
REMARK  164  A    between atoms: _405  and  _406
REMARK  165  A    between atoms: _405  and  _408
REMARK  166  A    between atoms: _411  and  _413
REMARK  167  A    between atoms: _413  and  _414
REMARK  168  A    between atoms: _413  and  _416
REMARK  169  A    between atoms: _416  and  _417
REMARK  170  A    between atoms: _420  and  _422
REMARK  171  A    between atoms: _422  and  _423
REMARK  172  A    between atoms: _425  and  _427
REMARK  173  A    between atoms: _427  and  _428
REMARK  174  A    between atoms: _427  and  _430
REMARK  175  A    between atoms: _433  and  _435
REMARK  176  A    between atoms: _435  and  _436
REMARK  177  A    between atoms: _438  and  _440
REMARK  178  A    between atoms: _440  and  _441
REMARK  179  A    between atoms: _440  and  _443
REMARK  180  A    between atoms: _443  and  _444
REMARK  181  A    between atoms: _447  and  _449
REMARK  182  A    between atoms: _449  and  _450
REMARK  183  A    between atoms: _449  and  _452
REMARK  184  A    between atoms: _452  and  _453
REMARK  185  A    between atoms: _458  and  _460
REMARK  186  A    between atoms: _460  and  _461
REMARK  187  A    between atoms: _460  and  _463
REMARK  188  A    between atoms: _466  and  _468
REMARK  189  A    between atoms: _468  and  _469
REMARK  190  A    between atoms: _468  and  _471
REMARK  191  A    between atoms: _471  and  _472
REMARK  192  A    between atoms: _472  and  _473
REMARK  193  A    between atoms: _478  and  _480
REMARK  194  A    between atoms: _480  and  _481
REMARK  195  A    between atoms: _485  and  _486
REMARK  196  A    between atoms: _491  and  _493
REMARK  197  A    between atoms: _493  and  _494
REMARK  198  A    between atoms: _493  and  _496
REMARK  199  A    between atoms: _496  and  _497
REMARK  200  A    between atoms: _497  and  _498
REMARK  201  A    between atoms: _501  and  _503
REMARK  202  A    between atoms: _503  and  _504
REMARK  203  A    between atoms: _503  and  _506
REMARK  204  A    between atoms: _509  and  _511
REMARK  205  A    between atoms: _511  and  _512
REMARK  206  A    between atoms: _511  and  _514
REMARK  207  A    between atoms: _514  and  _515
REMARK  208  A    between atoms: _519  and  _520
REMARK  209  A    between atoms: _525  and  _527
REMARK  210  A    between atoms: _527  and  _528
REMARK  211  A    between atoms: _527  and  _530
REMARK  212  A    between atoms: _530  and  _531
REMARK  213  A    between atoms: _534  and  _536
REMARK  214  A    between atoms: _536  and  _537
REMARK  215  A    between atoms: _540  and  _542
REMARK  216  A    between atoms: _542  and  _543
REMARK  217  A    between atoms: _542  and  _545
REMARK  218  A    between atoms: _545  and  _546
REMARK  219  A    between atoms: _549  and  _551
REMARK  220  A    between atoms: _551  and  _552
REMARK  221  A    between atoms: _551  and  _554
REMARK  222  A    between atoms: _554  and  _555
REMARK  223  A    between atoms: _557  and  _559
REMARK  224  A    between atoms: _559  and  _560
REMARK  225  A    between atoms: _562  and  _564
REMARK  226  A    between atoms: _564  and  _565
REMARK  227  A    between atoms: _564  and  _567
REMARK  228  A    between atoms: _567  and  _568
REMARK  229  A    between atoms: _571  and  _573
REMARK  230  A    between atoms: _573  and  _574
REMARK  231  A    between atoms: _573  and  _576
REMARK                            x       y       z     vdW  Elec       q    Type
REMARK                         _______ _______ _______ _____ _____    ______ ____
ROOT
ATOM      1  O   HOH     1      -8.635  -8.842   7.514  0.00  0.00    +0.000 OA
ENDROOT
TORSDOF 0
REMARK  Name = ../refined-set-2016/4xu3/4xu3_pocket.pdb
REMARK  231 active torsions:
REMARK  status: ('A' for Active; 'I' for Inactive)
REMARK    1  A    between atoms: _1  and  _3
REMARK    2  A    between atoms: _3  and  _4
REMARK    3  A    between atoms: _3  and  _6
REMARK    4  A    between atoms: _6  and  _7
REMARK    5  A    between atoms: _10  and  _12
REMARK    6  A    between atoms: _12  and  _13
REMARK    7  A    between atoms: _15  and  _17
REMARK    8  A    between atoms: _17  and  _18
REMARK    9  A    between atoms: _17  and  _20
REMARK   10  A    between atoms: _20  and  _21
REMARK   11  A    between atoms: _23  and  _25
REMARK   12  A    between atoms: _25  and  _26
REMARK   13  A    between atoms: _25  and  _28
REMARK   14  A    between atoms: _28  and  _29
REMARK   15  A    between atoms: _32  and  _34
REMARK   16  A    between atoms: _34  and  _35
REMARK   17  A    between atoms: _34  and  _37
REMARK   18  A    between atoms: _37  and  _38
REMARK   19  A    between atoms: _43  and  _45
REMARK   20  A    between atoms: _45  and  _46
REMARK   21  A    between atoms: _49  and  _51
REMARK   22  A    between atoms: _51  and  _52
REMARK   23  A    between atoms: _51  and  _54
REMARK   24  A    between atoms: _54  and  _55
REMARK   25  A    between atoms: _58  and  _60
REMARK   26  A    between atoms: _60  and  _61
REMARK   27  A    between atoms: _60  and  _63
REMARK   28  A    between atoms: _63  and  _64
REMARK   29  A    between atoms: _67  and  _69
REMARK   30  A    between atoms: _69  and  _70
REMARK   31  A    between atoms: _69  and  _72
REMARK   32  A    between atoms: _72  and  _73
REMARK   33  A    between atoms: _76  and  _78
REMARK   34  A    between atoms: _78  and  _79
REMARK   35  A    between atoms: _82  and  _84
REMARK   36  A    between atoms: _84  and  _85
REMARK   37  A    between atoms: _84  and  _87
REMARK   38  A    between atoms: _87  and  _88
REMARK   39  A    between atoms: _88  and  _89
REMARK   40  A    between atoms: _94  and  _96
REMARK   41  A    between atoms: _96  and  _97
REMARK   42  A    between atoms: _96  and  _99
REMARK   43  A    between atoms: _99  and  _100
REMARK   44  A    between atoms: _103  and  _105
REMARK   45  A    between atoms: _105  and  _106
REMARK   46  A    between atoms: _109  and  _111
REMARK   47  A    between atoms: _111  and  _112
REMARK   48  A    between atoms: _114  and  _116
REMARK   49  A    between atoms: _116  and  _117
REMARK   50  A    between atoms: _116  and  _119
REMARK   51  A    between atoms: _119  and  _120
REMARK   52  A    between atoms: _120  and  _121
REMARK   53  A    between atoms: _121  and  _122
REMARK   54  A    between atoms: _131  and  _133
REMARK   55  A    between atoms: _133  and  _134
REMARK   56  A    between atoms: _136  and  _138
REMARK   57  A    between atoms: _138  and  _139
REMARK   58  A    between atoms: _138  and  _141
REMARK   59  A    between atoms: _141  and  _142
REMARK   60  A    between atoms: _142  and  _143
REMARK   61  A    between atoms: _143  and  _144
REMARK   62  A    between atoms: _153  and  _155
REMARK   63  A    between atoms: _155  and  _156
REMARK   64  A    between atoms: _155  and  _158
REMARK   65  A    between atoms: _158  and  _159
REMARK   66  A    between atoms: _164  and  _166
REMARK   67  A    between atoms: _166  and  _167
REMARK   68  A    between atoms: _169  and  _171
REMARK   69  A    between atoms: _171  and  _172
REMARK   70  A    between atoms: _171  and  _174
REMARK   71  A    between atoms: _174  and  _175
REMARK   72  A    between atoms: _175  and  _176
REMARK   73  A    between atoms: _176  and  _177
REMARK   74  A    between atoms: _186  and  _188
REMARK   75  A    between atoms: _188  and  _189
REMARK   76  A    between atoms: _191  and  _193
REMARK   77  A    between atoms: _193  and  _194
REMARK   78  A    between atoms: _193  and  _196
REMARK   79  A    between atoms: _196  and  _197
REMARK   80  A    between atoms: _207  and  _209
REMARK   81  A    between atoms: _209  and  _210
REMARK   82  A    between atoms: _213  and  _215
REMARK   83  A    between atoms: _215  and  _216
REMARK   84  A    between atoms: _219  and  _221
REMARK   85  A    between atoms: _221  and  _222
REMARK   86  A    between atoms: _221  and  _224
REMARK   87  A    between atoms: _224  and  _225
REMARK   88  A    between atoms: _228  and  _230
REMARK   89  A    between atoms: _230  and  _231
REMARK   90  A    between atoms: _230  and  _233
REMARK   91  A    between atoms: _233  and  _234
REMARK   92  A    between atoms: _234  and  _235
REMARK   93  A    between atoms: _240  and  _242
REMARK   94  A    between atoms: _242  and  _243
REMARK   95  A    between atoms: _242  and  _245
REMARK   96  A    between atoms: _245  and  _246
REMARK   97  A    between atoms: _249  and  _251
REMARK   98  A    between atoms: _251  and  _252
REMARK   99  A    between atoms: _251  and  _254
REMARK  100  A    between atoms: _254  and  _255
REMARK  101  A    between atoms: _258  and  _260
REMARK  102  A    between atoms: _260  and  _261
REMARK  103  A    between atoms: _260  and  _263
REMARK  104  A    between atoms: _263  and  _264
REMARK  105  A    between atoms: _267  and  _269
REMARK  106  A    between atoms: _269  and  _270
REMARK  107  A    between atoms: _269  and  _272
REMARK  108  A    between atoms: _272  and  _273
REMARK  109  A    between atoms: _275  and  _277
REMARK  110  A    between atoms: _277  and  _278
REMARK  111  A    between atoms: _277  and  _280
REMARK  112  A    between atoms: _283  and  _285
REMARK  113  A    between atoms: _285  and  _286
REMARK  114  A    between atoms: _285  and  _288
REMARK  115  A    between atoms: _288  and  _289
REMARK  116  A    between atoms: _289  and  _290
REMARK  117  A    between atoms: _290  and  _291
REMARK  118  A    between atoms: _291  and  _292
REMARK  119  A    between atoms: _297  and  _298
REMARK  120  A    between atoms: _303  and  _305
REMARK  121  A    between atoms: _305  and  _306
REMARK  122  A    between atoms: _305  and  _308
REMARK  123  A    between atoms: _308  and  _309
REMARK  124  A    between atoms: _314  and  _316
REMARK  125  A    between atoms: _316  and  _317
REMARK  126  A    between atoms: _316  and  _319
REMARK  127  A    between atoms: _319  and  _320
REMARK  128  A    between atoms: _323  and  _325
REMARK  129  A    between atoms: _325  and  _326
REMARK  130  A    between atoms: _325  and  _328
REMARK  131  A    between atoms: _331  and  _333
REMARK  132  A    between atoms: _333  and  _334
REMARK  133  A    between atoms: _336  and  _338
REMARK  134  A    between atoms: _338  and  _339
REMARK  135  A    between atoms: _338  and  _341
REMARK  136  A    between atoms: _341  and  _342
REMARK  137  A    between atoms: _342  and  _343
REMARK  138  A    between atoms: _343  and  _344
REMARK  139  A    between atoms: _344  and  _345
REMARK  140  A    between atoms: _349  and  _351
REMARK  141  A    between atoms: _351  and  _352
REMARK  142  A    between atoms: _351  and  _354
REMARK  143  A    between atoms: _354  and  _355
REMARK  144  A    between atoms: _358  and  _360
REMARK  145  A    between atoms: _360  and  _361
REMARK  146  A    between atoms: _364  and  _366
REMARK  147  A    between atoms: _366  and  _367
REMARK  148  A    between atoms: _369  and  _371
REMARK  149  A    between atoms: _371  and  _372
REMARK  150  A    between atoms: _371  and  _374
REMARK  151  A    between atoms: _374  and  _375
REMARK  152  A    between atoms: _378  and  _380
REMARK  153  A    between atoms: _380  and  _381
REMARK  154  A    between atoms: _380  and  _383
REMARK  155  A    between atoms: _383  and  _384
REMARK  156  A    between atoms: _387  and  _389
REMARK  157  A    between atoms: _389  and  _390
REMARK  158  A    between atoms: _393  and  _395
REMARK  159  A    between atoms: _395  and  _396
REMARK  160  A    between atoms: _395  and  _398
REMARK  161  A    between atoms: _398  and  _399
REMARK  162  A    between atoms: _399  and  _400
REMARK  163  A    between atoms: _403  and  _405
REMARK  164  A    between atoms: _405  and  _406
REMARK  165  A    between atoms: _405  and  _408
REMARK  166  A    between atoms: _411  and  _413
REMARK  167  A    between atoms: _413  and  _414
REMARK  168  A    between atoms: _413  and  _416
REMARK  169  A    between atoms: _416  and  _417
REMARK  170  A    between atoms: _420  and  _422
REMARK  171  A    between atoms: _422  and  _423
REMARK  172  A    between atoms: _425  and  _427
REMARK  173  A    between atoms: _427  and  _428
REMARK  174  A    between atoms: _427  and  _430
REMARK  175  A    between atoms: _433  and  _435
REMARK  176  A    between atoms: _435  and  _436
REMARK  177  A    between atoms: _438  and  _440
REMARK  178  A    between atoms: _440  and  _441
REMARK  179  A    between atoms: _440  and  _443
REMARK  180  A    between atoms: _443  and  _444
REMARK  181  A    between atoms: _447  and  _449
REMARK  182  A    between atoms: _449  and  _450
REMARK  183  A    between atoms: _449  and  _452
REMARK  184  A    between atoms: _452  and  _453
REMARK  185  A    between atoms: _458  and  _460
REMARK  186  A    between atoms: _460  and  _461
REMARK  187  A    between atoms: _460  and  _463
REMARK  188  A    between atoms: _466  and  _468
REMARK  189  A    between atoms: _468  and  _469
REMARK  190  A    between atoms: _468  and  _471
REMARK  191  A    between atoms: _471  and  _472
REMARK  192  A    between atoms: _472  and  _473
REMARK  193  A    between atoms: _478  and  _480
REMARK  194  A    between atoms: _480  and  _481
REMARK  195  A    between atoms: _485  and  _486
REMARK  196  A    between atoms: _491  and  _493
REMARK  197  A    between atoms: _493  and  _494
REMARK  198  A    between atoms: _493  and  _496
REMARK  199  A    between atoms: _496  and  _497
REMARK  200  A    between atoms: _497  and  _498
REMARK  201  A    between atoms: _501  and  _503
REMARK  202  A    between atoms: _503  and  _504
REMARK  203  A    between atoms: _503  and  _506
REMARK  204  A    between atoms: _509  and  _511
REMARK  205  A    between atoms: _511  and  _512
REMARK  206  A    between atoms: _511  and  _514
REMARK  207  A    between atoms: _514  and  _515
REMARK  208  A    between atoms: _519  and  _520
REMARK  209  A    between atoms: _525  and  _527
REMARK  210  A    between atoms: _527  and  _528
REMARK  211  A    between atoms: _527  and  _530
REMARK  212  A    between atoms: _530  and  _531
REMARK  213  A    between atoms: _534  and  _536
REMARK  214  A    between atoms: _536  and  _537
REMARK  215  A    between atoms: _540  and  _542
REMARK  216  A    between atoms: _542  and  _543
REMARK  217  A    between atoms: _542  and  _545
REMARK  218  A    between atoms: _545  and  _546
REMARK  219  A    between atoms: _549  and  _551
REMARK  220  A    between atoms: _551  and  _552
REMARK  221  A    between atoms: _551  and  _554
REMARK  222  A    between atoms: _554  and  _555
REMARK  223  A    between atoms: _557  and  _559
REMARK  224  A    between atoms: _559  and  _560
REMARK  225  A    between atoms: _562  and  _564
REMARK  226  A    between atoms: _564  and  _565
REMARK  227  A    between atoms: _564  and  _567
REMARK  228  A    between atoms: _567  and  _568
REMARK  229  A    between atoms: _571  and  _573
REMARK  230  A    between atoms: _573  and  _574
REMARK  231  A    between atoms: _573  and  _576
REMARK                            x       y       z     vdW  Elec       q    Type
REMARK                         _______ _______ _______ _____ _____    ______ ____
ROOT
ATOM      1  O   HOH     1      -0.404  -3.910  17.411  0.00  0.00    +0.000 OA
ENDROOT
TORSDOF 0
REMARK  Name = ../refined-set-2016/4xu3/4xu3_pocket.pdb
REMARK  231 active torsions:
REMARK  status: ('A' for Active; 'I' for Inactive)
REMARK    1  A    between atoms: _1  and  _3
REMARK    2  A    between atoms: _3  and  _4
REMARK    3  A    between atoms: _3  and  _6
REMARK    4  A    between atoms: _6  and  _7
REMARK    5  A    between atoms: _10  and  _12
REMARK    6  A    between atoms: _12  and  _13
REMARK    7  A    between atoms: _15  and  _17
REMARK    8  A    between atoms: _17  and  _18
REMARK    9  A    between atoms: _17  and  _20
REMARK   10  A    between atoms: _20  and  _21
REMARK   11  A    between atoms: _23  and  _25
REMARK   12  A    between atoms: _25  and  _26
REMARK   13  A    between atoms: _25  and  _28
REMARK   14  A    between atoms: _28  and  _29
REMARK   15  A    between atoms: _32  and  _34
REMARK   16  A    between atoms: _34  and  _35
REMARK   17  A    between atoms: _34  and  _37
REMARK   18  A    between atoms: _37  and  _38
REMARK   19  A    between atoms: _43  and  _45
REMARK   20  A    between atoms: _45  and  _46
REMARK   21  A    between atoms: _49  and  _51
REMARK   22  A    between atoms: _51  and  _52
REMARK   23  A    between atoms: _51  and  _54
REMARK   24  A    between atoms: _54  and  _55
REMARK   25  A    between atoms: _58  and  _60
REMARK   26  A    between atoms: _60  and  _61
REMARK   27  A    between atoms: _60  and  _63
REMARK   28  A    between atoms: _63  and  _64
REMARK   29  A    between atoms: _67  and  _69
REMARK   30  A    between atoms: _69  and  _70
REMARK   31  A    between atoms: _69  and  _72
REMARK   32  A    between atoms: _72  and  _73
REMARK   33  A    between atoms: _76  and  _78
REMARK   34  A    between atoms: _78  and  _79
REMARK   35  A    between atoms: _82  and  _84
REMARK   36  A    between atoms: _84  and  _85
REMARK   37  A    between atoms: _84  and  _87
REMARK   38  A    between atoms: _87  and  _88
REMARK   39  A    between atoms: _88  and  _89
REMARK   40  A    between atoms: _94  and  _96
REMARK   41  A    between atoms: _96  and  _97
REMARK   42  A    between atoms: _96  and  _99
REMARK   43  A    between atoms: _99  and  _100
REMARK   44  A    between atoms: _103  and  _105
REMARK   45  A    between atoms: _105  and  _106
REMARK   46  A    between atoms: _109  and  _111
REMARK   47  A    between atoms: _111  and  _112
REMARK   48  A    between atoms: _114  and  _116
REMARK   49  A    between atoms: _116  and  _117
REMARK   50  A    between atoms: _116  and  _119
REMARK   51  A    between atoms: _119  and  _120
REMARK   52  A    between atoms: _120  and  _121
REMARK   53  A    between atoms: _121  and  _122
REMARK   54  A    between atoms: _131  and  _133
REMARK   55  A    between atoms: _133  and  _134
REMARK   56  A    between atoms: _136  and  _138
REMARK   57  A    between atoms: _138  and  _139
REMARK   58  A    between atoms: _138  and  _141
REMARK   59  A    between atoms: _141  and  _142
REMARK   60  A    between atoms: _142  and  _143
REMARK   61  A    between atoms: _143  and  _144
REMARK   62  A    between atoms: _153  and  _155
REMARK   63  A    between atoms: _155  and  _156
REMARK   64  A    between atoms: _155  and  _158
REMARK   65  A    between atoms: _158  and  _159
REMARK   66  A    between atoms: _164  and  _166
REMARK   67  A    between atoms: _166  and  _167
REMARK   68  A    between atoms: _169  and  _171
REMARK   69  A    between atoms: _171  and  _172
REMARK   70  A    between atoms: _171  and  _174
REMARK   71  A    between atoms: _174  and  _175
REMARK   72  A    between atoms: _175  and  _176
REMARK   73  A    between atoms: _176  and  _177
REMARK   74  A    between atoms: _186  and  _188
REMARK   75  A    between atoms: _188  and  _189
REMARK   76  A    between atoms: _191  and  _193
REMARK   77  A    between atoms: _193  and  _194
REMARK   78  A    between atoms: _193  and  _196
REMARK   79  A    between atoms: _196  and  _197
REMARK   80  A    between atoms: _207  and  _209
REMARK   81  A    between atoms: _209  and  _210
REMARK   82  A    between atoms: _213  and  _215
REMARK   83  A    between atoms: _215  and  _216
REMARK   84  A    between atoms: _219  and  _221
REMARK   85  A    between atoms: _221  and  _222
REMARK   86  A    between atoms: _221  and  _224
REMARK   87  A    between atoms: _224  and  _225
REMARK   88  A    between atoms: _228  and  _230
REMARK   89  A    between atoms: _230  and  _231
REMARK   90  A    between atoms: _230  and  _233
REMARK   91  A    between atoms: _233  and  _234
REMARK   92  A    between atoms: _234  and  _235
REMARK   93  A    between atoms: _240  and  _242
REMARK   94  A    between atoms: _242  and  _243
REMARK   95  A    between atoms: _242  and  _245
REMARK   96  A    between atoms: _245  and  _246
REMARK   97  A    between atoms: _249  and  _251
REMARK   98  A    between atoms: _251  and  _252
REMARK   99  A    between atoms: _251  and  _254
REMARK  100  A    between atoms: _254  and  _255
REMARK  101  A    between atoms: _258  and  _260
REMARK  102  A    between atoms: _260  and  _261
REMARK  103  A    between atoms: _260  and  _263
REMARK  104  A    between atoms: _263  and  _264
REMARK  105  A    between atoms: _267  and  _269
REMARK  106  A    between atoms: _269  and  _270
REMARK  107  A    between atoms: _269  and  _272
REMARK  108  A    between atoms: _272  and  _273
REMARK  109  A    between atoms: _275  and  _277
REMARK  110  A    between atoms: _277  and  _278
REMARK  111  A    between atoms: _277  and  _280
REMARK  112  A    between atoms: _283  and  _285
REMARK  113  A    between atoms: _285  and  _286
REMARK  114  A    between atoms: _285  and  _288
REMARK  115  A    between atoms: _288  and  _289
REMARK  116  A    between atoms: _289  and  _290
REMARK  117  A    between atoms: _290  and  _291
REMARK  118  A    between atoms: _291  and  _292
REMARK  119  A    between atoms: _297  and  _298
REMARK  120  A    between atoms: _303  and  _305
REMARK  121  A    between atoms: _305  and  _306
REMARK  122  A    between atoms: _305  and  _308
REMARK  123  A    between atoms: _308  and  _309
REMARK  124  A    between atoms: _314  and  _316
REMARK  125  A    between atoms: _316  and  _317
REMARK  126  A    between atoms: _316  and  _319
REMARK  127  A    between atoms: _319  and  _320
REMARK  128  A    between atoms: _323  and  _325
REMARK  129  A    between atoms: _325  and  _326
REMARK  130  A    between atoms: _325  and  _328
REMARK  131  A    between atoms: _331  and  _333
REMARK  132  A    between atoms: _333  and  _334
REMARK  133  A    between atoms: _336  and  _338
REMARK  134  A    between atoms: _338  and  _339
REMARK  135  A    between atoms: _338  and  _341
REMARK  136  A    between atoms: _341  and  _342
REMARK  137  A    between atoms: _342  and  _343
REMARK  138  A    between atoms: _343  and  _344
REMARK  139  A    between atoms: _344  and  _345
REMARK  140  A    between atoms: _349  and  _351
REMARK  141  A    between atoms: _351  and  _352
REMARK  142  A    between atoms: _351  and  _354
REMARK  143  A    between atoms: _354  and  _355
REMARK  144  A    between atoms: _358  and  _360
REMARK  145  A    between atoms: _360  and  _361
REMARK  146  A    between atoms: _364  and  _366
REMARK  147  A    between atoms: _366  and  _367
REMARK  148  A    between atoms: _369  and  _371
REMARK  149  A    between atoms: _371  and  _372
REMARK  150  A    between atoms: _371  and  _374
REMARK  151  A    between atoms: _374  and  _375
REMARK  152  A    between atoms: _378  and  _380
REMARK  153  A    between atoms: _380  and  _381
REMARK  154  A    between atoms: _380  and  _383
REMARK  155  A    between atoms: _383  and  _384
REMARK  156  A    between atoms: _387  and  _389
REMARK  157  A    between atoms: _389  and  _390
REMARK  158  A    between atoms: _393  and  _395
REMARK  159  A    between atoms: _395  and  _396
REMARK  160  A    between atoms: _395  and  _398
REMARK  161  A    between atoms: _398  and  _399
REMARK  162  A    between atoms: _399  and  _400
REMARK  163  A    between atoms: _403  and  _405
REMARK  164  A    between atoms: _405  and  _406
REMARK  165  A    between atoms: _405  and  _408
REMARK  166  A    between atoms: _411  and  _413
REMARK  167  A    between atoms: _413  and  _414
REMARK  168  A    between atoms: _413  and  _416
REMARK  169  A    between atoms: _416  and  _417
REMARK  170  A    between atoms: _420  and  _422
REMARK  171  A    between atoms: _422  and  _423
REMARK  172  A    between atoms: _425  and  _427
REMARK  173  A    between atoms: _427  and  _428
REMARK  174  A    between atoms: _427  and  _430
REMARK  175  A    between atoms: _433  and  _435
REMARK  176  A    between atoms: _435  and  _436
REMARK  177  A    between atoms: _438  and  _440
REMARK  178  A    between atoms: _440  and  _441
REMARK  179  A    between atoms: _440  and  _443
REMARK  180  A    between atoms: _443  and  _444
REMARK  181  A    between atoms: _447  and  _449
REMARK  182  A    between atoms: _449  and  _450
REMARK  183  A    between atoms: _449  and  _452
REMARK  184  A    between atoms: _452  and  _453
REMARK  185  A    between atoms: _458  and  _460
REMARK  186  A    between atoms: _460  and  _461
REMARK  187  A    between atoms: _460  and  _463
REMARK  188  A    between atoms: _466  and  _468
REMARK  189  A    between atoms: _468  and  _469
REMARK  190  A    between atoms: _468  and  _471
REMARK  191  A    between atoms: _471  and  _472
REMARK  192  A    between atoms: _472  and  _473
REMARK  193  A    between atoms: _478  and  _480
REMARK  194  A    between atoms: _480  and  _481
REMARK  195  A    between atoms: _485  and  _486
REMARK  196  A    between atoms: _491  and  _493
REMARK  197  A    between atoms: _493  and  _494
REMARK  198  A    between atoms: _493  and  _496
REMARK  199  A    between atoms: _496  and  _497
REMARK  200  A    between atoms: _497  and  _498
REMARK  201  A    between atoms: _501  and  _503
REMARK  202  A    between atoms: _503  and  _504
REMARK  203  A    between atoms: _503  and  _506
REMARK  204  A    between atoms: _509  and  _511
REMARK  205  A    between atoms: _511  and  _512
REMARK  206  A    between atoms: _511  and  _514
REMARK  207  A    between atoms: _514  and  _515
REMARK  208  A    between atoms: _519  and  _520
REMARK  209  A    between atoms: _525  and  _527
REMARK  210  A    between atoms: _527  and  _528
REMARK  211  A    between atoms: _527  and  _530
REMARK  212  A    between atoms: _530  and  _531
REMARK  213  A    between atoms: _534  and  _536
REMARK  214  A    between atoms: _536  and  _537
REMARK  215  A    between atoms: _540  and  _542
REMARK  216  A    between atoms: _542  and  _543
REMARK  217  A    between atoms: _542  and  _545
REMARK  218  A    between atoms: _545  and  _546
REMARK  219  A    between atoms: _549  and  _551
REMARK  220  A    between atoms: _551  and  _552
REMARK  221  A    between atoms: _551  and  _554
REMARK  222  A    between atoms: _554  and  _555
REMARK  223  A    between atoms: _557  and  _559
REMARK  224  A    between atoms: _559  and  _560
REMARK  225  A    between atoms: _562  and  _564
REMARK  226  A    between atoms: _564  and  _565
REMARK  227  A    between atoms: _564  and  _567
REMARK  228  A    between atoms: _567  and  _568
REMARK  229  A    between atoms: _571  and  _573
REMARK  230  A    between atoms: _573  and  _574
REMARK  231  A    between atoms: _573  and  _576
REMARK                            x       y       z     vdW  Elec       q    Type
REMARK                         _______ _______ _______ _____ _____    ______ ____
ROOT
ATOM      1  O   HOH     1      -8.054   1.897   4.212  0.00  0.00    +0.000 OA
ENDROOT
TORSDOF 0
REMARK  Name = ../refined-set-2016/4xu3/4xu3_pocket.pdb
REMARK  231 active torsions:
REMARK  status: ('A' for Active; 'I' for Inactive)
REMARK    1  A    between atoms: _1  and  _3
REMARK    2  A    between atoms: _3  and  _4
REMARK    3  A    between atoms: _3  and  _6
REMARK    4  A    between atoms: _6  and  _7
REMARK    5  A    between atoms: _10  and  _12
REMARK    6  A    between atoms: _12  and  _13
REMARK    7  A    between atoms: _15  and  _17
REMARK    8  A    between atoms: _17  and  _18
REMARK    9  A    between atoms: _17  and  _20
REMARK   10  A    between atoms: _20  and  _21
REMARK   11  A    between atoms: _23  and  _25
REMARK   12  A    between atoms: _25  and  _26
REMARK   13  A    between atoms: _25  and  _28
REMARK   14  A    between atoms: _28  and  _29
REMARK   15  A    between atoms: _32  and  _34
REMARK   16  A    between atoms: _34  and  _35
REMARK   17  A    between atoms: _34  and  _37
REMARK   18  A    between atoms: _37  and  _38
REMARK   19  A    between atoms: _43  and  _45
REMARK   20  A    between atoms: _45  and  _46
REMARK   21  A    between atoms: _49  and  _51
REMARK   22  A    between atoms: _51  and  _52
REMARK   23  A    between atoms: _51  and  _54
REMARK   24  A    between atoms: _54  and  _55
REMARK   25  A    between atoms: _58  and  _60
REMARK   26  A    between atoms: _60  and  _61
REMARK   27  A    between atoms: _60  and  _63
REMARK   28  A    between atoms: _63  and  _64
REMARK   29  A    between atoms: _67  and  _69
REMARK   30  A    between atoms: _69  and  _70
REMARK   31  A    between atoms: _69  and  _72
REMARK   32  A    between atoms: _72  and  _73
REMARK   33  A    between atoms: _76  and  _78
REMARK   34  A    between atoms: _78  and  _79
REMARK   35  A    between atoms: _82  and  _84
REMARK   36  A    between atoms: _84  and  _85
REMARK   37  A    between atoms: _84  and  _87
REMARK   38  A    between atoms: _87  and  _88
REMARK   39  A    between atoms: _88  and  _89
REMARK   40  A    between atoms: _94  and  _96
REMARK   41  A    between atoms: _96  and  _97
REMARK   42  A    between atoms: _96  and  _99
REMARK   43  A    between atoms: _99  and  _100
REMARK   44  A    between atoms: _103  and  _105
REMARK   45  A    between atoms: _105  and  _106
REMARK   46  A    between atoms: _109  and  _111
REMARK   47  A    between atoms: _111  and  _112
REMARK   48  A    between atoms: _114  and  _116
REMARK   49  A    between atoms: _116  and  _117
REMARK   50  A    between atoms: _116  and  _119
REMARK   51  A    between atoms: _119  and  _120
REMARK   52  A    between atoms: _120  and  _121
REMARK   53  A    between atoms: _121  and  _122
REMARK   54  A    between atoms: _131  and  _133
REMARK   55  A    between atoms: _133  and  _134
REMARK   56  A    between atoms: _136  and  _138
REMARK   57  A    between atoms: _138  and  _139
REMARK   58  A    between atoms: _138  and  _141
REMARK   59  A    between atoms: _141  and  _142
REMARK   60  A    between atoms: _142  and  _143
REMARK   61  A    between atoms: _143  and  _144
REMARK   62  A    between atoms: _153  and  _155
REMARK   63  A    between atoms: _155  and  _156
REMARK   64  A    between atoms: _155  and  _158
REMARK   65  A    between atoms: _158  and  _159
REMARK   66  A    between atoms: _164  and  _166
REMARK   67  A    between atoms: _166  and  _167
REMARK   68  A    between atoms: _169  and  _171
REMARK   69  A    between atoms: _171  and  _172
REMARK   70  A    between atoms: _171  and  _174
REMARK   71  A    between atoms: _174  and  _175
REMARK   72  A    between atoms: _175  and  _176
REMARK   73  A    between atoms: _176  and  _177
REMARK   74  A    between atoms: _186  and  _188
REMARK   75  A    between atoms: _188  and  _189
REMARK   76  A    between atoms: _191  and  _193
REMARK   77  A    between atoms: _193  and  _194
REMARK   78  A    between atoms: _193  and  _196
REMARK   79  A    between atoms: _196  and  _197
REMARK   80  A    between atoms: _207  and  _209
REMARK   81  A    between atoms: _209  and  _210
REMARK   82  A    between atoms: _213  and  _215
REMARK   83  A    between atoms: _215  and  _216
REMARK   84  A    between atoms: _219  and  _221
REMARK   85  A    between atoms: _221  and  _222
REMARK   86  A    between atoms: _221  and  _224
REMARK   87  A    between atoms: _224  and  _225
REMARK   88  A    between atoms: _228  and  _230
REMARK   89  A    between atoms: _230  and  _231
REMARK   90  A    between atoms: _230  and  _233
REMARK   91  A    between atoms: _233  and  _234
REMARK   92  A    between atoms: _234  and  _235
REMARK   93  A    between atoms: _240  and  _242
REMARK   94  A    between atoms: _242  and  _243
REMARK   95  A    between atoms: _242  and  _245
REMARK   96  A    between atoms: _245  and  _246
REMARK   97  A    between atoms: _249  and  _251
REMARK   98  A    between atoms: _251  and  _252
REMARK   99  A    between atoms: _251  and  _254
REMARK  100  A    between atoms: _254  and  _255
REMARK  101  A    between atoms: _258  and  _260
REMARK  102  A    between atoms: _260  and  _261
REMARK  103  A    between atoms: _260  and  _263
REMARK  104  A    between atoms: _263  and  _264
REMARK  105  A    between atoms: _267  and  _269
REMARK  106  A    between atoms: _269  and  _270
REMARK  107  A    between atoms: _269  and  _272
REMARK  108  A    between atoms: _272  and  _273
REMARK  109  A    between atoms: _275  and  _277
REMARK  110  A    between atoms: _277  and  _278
REMARK  111  A    between atoms: _277  and  _280
REMARK  112  A    between atoms: _283  and  _285
REMARK  113  A    between atoms: _285  and  _286
REMARK  114  A    between atoms: _285  and  _288
REMARK  115  A    between atoms: _288  and  _289
REMARK  116  A    between atoms: _289  and  _290
REMARK  117  A    between atoms: _290  and  _291
REMARK  118  A    between atoms: _291  and  _292
REMARK  119  A    between atoms: _297  and  _298
REMARK  120  A    between atoms: _303  and  _305
REMARK  121  A    between atoms: _305  and  _306
REMARK  122  A    between atoms: _305  and  _308
REMARK  123  A    between atoms: _308  and  _309
REMARK  124  A    between atoms: _314  and  _316
REMARK  125  A    between atoms: _316  and  _317
REMARK  126  A    between atoms: _316  and  _319
REMARK  127  A    between atoms: _319  and  _320
REMARK  128  A    between atoms: _323  and  _325
REMARK  129  A    between atoms: _325  and  _326
REMARK  130  A    between atoms: _325  and  _328
REMARK  131  A    between atoms: _331  and  _333
REMARK  132  A    between atoms: _333  and  _334
REMARK  133  A    between atoms: _336  and  _338
REMARK  134  A    between atoms: _338  and  _339
REMARK  135  A    between atoms: _338  and  _341
REMARK  136  A    between atoms: _341  and  _342
REMARK  137  A    between atoms: _342  and  _343
REMARK  138  A    between atoms: _343  and  _344
REMARK  139  A    between atoms: _344  and  _345
REMARK  140  A    between atoms: _349  and  _351
REMARK  141  A    between atoms: _351  and  _352
REMARK  142  A    between atoms: _351  and  _354
REMARK  143  A    between atoms: _354  and  _355
REMARK  144  A    between atoms: _358  and  _360
REMARK  145  A    between atoms: _360  and  _361
REMARK  146  A    between atoms: _364  and  _366
REMARK  147  A    between atoms: _366  and  _367
REMARK  148  A    between atoms: _369  and  _371
REMARK  149  A    between atoms: _371  and  _372
REMARK  150  A    between atoms: _371  and  _374
REMARK  151  A    between atoms: _374  and  _375
REMARK  152  A    between atoms: _378  and  _380
REMARK  153  A    between atoms: _380  and  _381
REMARK  154  A    between atoms: _380  and  _383
REMARK  155  A    between atoms: _383  and  _384
REMARK  156  A    between atoms: _387  and  _389
REMARK  157  A    between atoms: _389  and  _390
REMARK  158  A    between atoms: _393  and  _395
REMARK  159  A    between atoms: _395  and  _396
REMARK  160  A    between atoms: _395  and  _398
REMARK  161  A    between atoms: _398  and  _399
REMARK  162  A    between atoms: _399  and  _400
REMARK  163  A    between atoms: _403  and  _405
REMARK  164  A    between atoms: _405  and  _406
REMARK  165  A    between atoms: _405  and  _408
REMARK  166  A    between atoms: _411  and  _413
REMARK  167  A    between atoms: _413  and  _414
REMARK  168  A    between atoms: _413  and  _416
REMARK  169  A    between atoms: _416  and  _417
REMARK  170  A    between atoms: _420  and  _422
REMARK  171  A    between atoms: _422  and  _423
REMARK  172  A    between atoms: _425  and  _427
REMARK  173  A    between atoms: _427  and  _428
REMARK  174  A    between atoms: _427  and  _430
REMARK  175  A    between atoms: _433  and  _435
REMARK  176  A    between atoms: _435  and  _436
REMARK  177  A    between atoms: _438  and  _440
REMARK  178  A    between atoms: _440  and  _441
REMARK  179  A    between atoms: _440  and  _443
REMARK  180  A    between atoms: _443  and  _444
REMARK  181  A    between atoms: _447  and  _449
REMARK  182  A    between atoms: _449  and  _450
REMARK  183  A    between atoms: _449  and  _452
REMARK  184  A    between atoms: _452  and  _453
REMARK  185  A    between atoms: _458  and  _460
REMARK  186  A    between atoms: _460  and  _461
REMARK  187  A    between atoms: _460  and  _463
REMARK  188  A    between atoms: _466  and  _468
REMARK  189  A    between atoms: _468  and  _469
REMARK  190  A    between atoms: _468  and  _471
REMARK  191  A    between atoms: _471  and  _472
REMARK  192  A    between atoms: _472  and  _473
REMARK  193  A    between atoms: _478  and  _480
REMARK  194  A    between atoms: _480  and  _481
REMARK  195  A    between atoms: _485  and  _486
REMARK  196  A    between atoms: _491  and  _493
REMARK  197  A    between atoms: _493  and  _494
REMARK  198  A    between atoms: _493  and  _496
REMARK  199  A    between atoms: _496  and  _497
REMARK  200  A    between atoms: _497  and  _498
REMARK  201  A    between atoms: _501  and  _503
REMARK  202  A    between atoms: _503  and  _504
REMARK  203  A    between atoms: _503  and  _506
REMARK  204  A    between atoms: _509  and  _511
REMARK  205  A    between atoms: _511  and  _512
REMARK  206  A    between atoms: _511  and  _514
REMARK  207  A    between atoms: _514  and  _515
REMARK  208  A    between atoms: _519  and  _520
REMARK  209  A    between atoms: _525  and  _527
REMARK  210  A    between atoms: _527  and  _528
REMARK  211  A    between atoms: _527  and  _530
REMARK  212  A    between atoms: _530  and  _531
REMARK  213  A    between atoms: _534  and  _536
REMARK  214  A    between atoms: _536  and  _537
REMARK  215  A    between atoms: _540  and  _542
REMARK  216  A    between atoms: _542  and  _543
REMARK  217  A    between atoms: _542  and  _545
REMARK  218  A    between atoms: _545  and  _546
REMARK  219  A    between atoms: _549  and  _551
REMARK  220  A    between atoms: _551  and  _552
REMARK  221  A    between atoms: _551  and  _554
REMARK  222  A    between atoms: _554  and  _555
REMARK  223  A    between atoms: _557  and  _559
REMARK  224  A    between atoms: _559  and  _560
REMARK  225  A    between atoms: _562  and  _564
REMARK  226  A    between atoms: _564  and  _565
REMARK  227  A    between atoms: _564  and  _567
REMARK  228  A    between atoms: _567  and  _568
REMARK  229  A    between atoms: _571  and  _573
REMARK  230  A    between atoms: _573  and  _574
REMARK  231  A    between atoms: _573  and  _576
REMARK                            x       y       z     vdW  Elec       q    Type
REMARK                         _______ _______ _______ _____ _____    ______ ____
ROOT
ATOM      1  O   HOH     1       0.876  -0.608  18.441  0.00  0.00    +0.000 OA
ENDROOT
TORSDOF 0
REMARK  Name = ../refined-set-2016/4xu3/4xu3_pocket.pdb
REMARK  231 active torsions:
REMARK  status: ('A' for Active; 'I' for Inactive)
REMARK    1  A    between atoms: _1  and  _3
REMARK    2  A    between atoms: _3  and  _4
REMARK    3  A    between atoms: _3  and  _6
REMARK    4  A    between atoms: _6  and  _7
REMARK    5  A    between atoms: _10  and  _12
REMARK    6  A    between atoms: _12  and  _13
REMARK    7  A    between atoms: _15  and  _17
REMARK    8  A    between atoms: _17  and  _18
REMARK    9  A    between atoms: _17  and  _20
REMARK   10  A    between atoms: _20  and  _21
REMARK   11  A    between atoms: _23  and  _25
REMARK   12  A    between atoms: _25  and  _26
REMARK   13  A    between atoms: _25  and  _28
REMARK   14  A    between atoms: _28  and  _29
REMARK   15  A    between atoms: _32  and  _34
REMARK   16  A    between atoms: _34  and  _35
REMARK   17  A    between atoms: _34  and  _37
REMARK   18  A    between atoms: _37  and  _38
REMARK   19  A    between atoms: _43  and  _45
REMARK   20  A    between atoms: _45  and  _46
REMARK   21  A    between atoms: _49  and  _51
REMARK   22  A    between atoms: _51  and  _52
REMARK   23  A    between atoms: _51  and  _54
REMARK   24  A    between atoms: _54  and  _55
REMARK   25  A    between atoms: _58  and  _60
REMARK   26  A    between atoms: _60  and  _61
REMARK   27  A    between atoms: _60  and  _63
REMARK   28  A    between atoms: _63  and  _64
REMARK   29  A    between atoms: _67  and  _69
REMARK   30  A    between atoms: _69  and  _70
REMARK   31  A    between atoms: _69  and  _72
REMARK   32  A    between atoms: _72  and  _73
REMARK   33  A    between atoms: _76  and  _78
REMARK   34  A    between atoms: _78  and  _79
REMARK   35  A    between atoms: _82  and  _84
REMARK   36  A    between atoms: _84  and  _85
REMARK   37  A    between atoms: _84  and  _87
REMARK   38  A    between atoms: _87  and  _88
REMARK   39  A    between atoms: _88  and  _89
REMARK   40  A    between atoms: _94  and  _96
REMARK   41  A    between atoms: _96  and  _97
REMARK   42  A    between atoms: _96  and  _99
REMARK   43  A    between atoms: _99  and  _100
REMARK   44  A    between atoms: _103  and  _105
REMARK   45  A    between atoms: _105  and  _106
REMARK   46  A    between atoms: _109  and  _111
REMARK   47  A    between atoms: _111  and  _112
REMARK   48  A    between atoms: _114  and  _116
REMARK   49  A    between atoms: _116  and  _117
REMARK   50  A    between atoms: _116  and  _119
REMARK   51  A    between atoms: _119  and  _120
REMARK   52  A    between atoms: _120  and  _121
REMARK   53  A    between atoms: _121  and  _122
REMARK   54  A    between atoms: _131  and  _133
REMARK   55  A    between atoms: _133  and  _134
REMARK   56  A    between atoms: _136  and  _138
REMARK   57  A    between atoms: _138  and  _139
REMARK   58  A    between atoms: _138  and  _141
REMARK   59  A    between atoms: _141  and  _142
REMARK   60  A    between atoms: _142  and  _143
REMARK   61  A    between atoms: _143  and  _144
REMARK   62  A    between atoms: _153  and  _155
REMARK   63  A    between atoms: _155  and  _156
REMARK   64  A    between atoms: _155  and  _158
REMARK   65  A    between atoms: _158  and  _159
REMARK   66  A    between atoms: _164  and  _166
REMARK   67  A    between atoms: _166  and  _167
REMARK   68  A    between atoms: _169  and  _171
REMARK   69  A    between atoms: _171  and  _172
REMARK   70  A    between atoms: _171  and  _174
REMARK   71  A    between atoms: _174  and  _175
REMARK   72  A    between atoms: _175  and  _176
REMARK   73  A    between atoms: _176  and  _177
REMARK   74  A    between atoms: _186  and  _188
REMARK   75  A    between atoms: _188  and  _189
REMARK   76  A    between atoms: _191  and  _193
REMARK   77  A    between atoms: _193  and  _194
REMARK   78  A    between atoms: _193  and  _196
REMARK   79  A    between atoms: _196  and  _197
REMARK   80  A    between atoms: _207  and  _209
REMARK   81  A    between atoms: _209  and  _210
REMARK   82  A    between atoms: _213  and  _215
REMARK   83  A    between atoms: _215  and  _216
REMARK   84  A    between atoms: _219  and  _221
REMARK   85  A    between atoms: _221  and  _222
REMARK   86  A    between atoms: _221  and  _224
REMARK   87  A    between atoms: _224  and  _225
REMARK   88  A    between atoms: _228  and  _230
REMARK   89  A    between atoms: _230  and  _231
REMARK   90  A    between atoms: _230  and  _233
REMARK   91  A    between atoms: _233  and  _234
REMARK   92  A    between atoms: _234  and  _235
REMARK   93  A    between atoms: _240  and  _242
REMARK   94  A    between atoms: _242  and  _243
REMARK   95  A    between atoms: _242  and  _245
REMARK   96  A    between atoms: _245  and  _246
REMARK   97  A    between atoms: _249  and  _251
REMARK   98  A    between atoms: _251  and  _252
REMARK   99  A    between atoms: _251  and  _254
REMARK  100  A    between atoms: _254  and  _255
REMARK  101  A    between atoms: _258  and  _260
REMARK  102  A    between atoms: _260  and  _261
REMARK  103  A    between atoms: _260  and  _263
REMARK  104  A    between atoms: _263  and  _264
REMARK  105  A    between atoms: _267  and  _269
REMARK  106  A    between atoms: _269  and  _270
REMARK  107  A    between atoms: _269  and  _272
REMARK  108  A    between atoms: _272  and  _273
REMARK  109  A    between atoms: _275  and  _277
REMARK  110  A    between atoms: _277  and  _278
REMARK  111  A    between atoms: _277  and  _280
REMARK  112  A    between atoms: _283  and  _285
REMARK  113  A    between atoms: _285  and  _286
REMARK  114  A    between atoms: _285  and  _288
REMARK  115  A    between atoms: _288  and  _289
REMARK  116  A    between atoms: _289  and  _290
REMARK  117  A    between atoms: _290  and  _291
REMARK  118  A    between atoms: _291  and  _292
REMARK  119  A    between atoms: _297  and  _298
REMARK  120  A    between atoms: _303  and  _305
REMARK  121  A    between atoms: _305  and  _306
REMARK  122  A    between atoms: _305  and  _308
REMARK  123  A    between atoms: _308  and  _309
REMARK  124  A    between atoms: _314  and  _316
REMARK  125  A    between atoms: _316  and  _317
REMARK  126  A    between atoms: _316  and  _319
REMARK  127  A    between atoms: _319  and  _320
REMARK  128  A    between atoms: _323  and  _325
REMARK  129  A    between atoms: _325  and  _326
REMARK  130  A    between atoms: _325  and  _328
REMARK  131  A    between atoms: _331  and  _333
REMARK  132  A    between atoms: _333  and  _334
REMARK  133  A    between atoms: _336  and  _338
REMARK  134  A    between atoms: _338  and  _339
REMARK  135  A    between atoms: _338  and  _341
REMARK  136  A    between atoms: _341  and  _342
REMARK  137  A    between atoms: _342  and  _343
REMARK  138  A    between atoms: _343  and  _344
REMARK  139  A    between atoms: _344  and  _345
REMARK  140  A    between atoms: _349  and  _351
REMARK  141  A    between atoms: _351  and  _352
REMARK  142  A    between atoms: _351  and  _354
REMARK  143  A    between atoms: _354  and  _355
REMARK  144  A    between atoms: _358  and  _360
REMARK  145  A    between atoms: _360  and  _361
REMARK  146  A    between atoms: _364  and  _366
REMARK  147  A    between atoms: _366  and  _367
REMARK  148  A    between atoms: _369  and  _371
REMARK  149  A    between atoms: _371  and  _372
REMARK  150  A    between atoms: _371  and  _374
REMARK  151  A    between atoms: _374  and  _375
REMARK  152  A    between atoms: _378  and  _380
REMARK  153  A    between atoms: _380  and  _381
REMARK  154  A    between atoms: _380  and  _383
REMARK  155  A    between atoms: _383  and  _384
REMARK  156  A    between atoms: _387  and  _389
REMARK  157  A    between atoms: _389  and  _390
REMARK  158  A    between atoms: _393  and  _395
REMARK  159  A    between atoms: _395  and  _396
REMARK  160  A    between atoms: _395  and  _398
REMARK  161  A    between atoms: _398  and  _399
REMARK  162  A    between atoms: _399  and  _400
REMARK  163  A    between atoms: _403  and  _405
REMARK  164  A    between atoms: _405  and  _406
REMARK  165  A    between atoms: _405  and  _408
REMARK  166  A    between atoms: _411  and  _413
REMARK  167  A    between atoms: _413  and  _414
REMARK  168  A    between atoms: _413  and  _416
REMARK  169  A    between atoms: _416  and  _417
REMARK  170  A    between atoms: _420  and  _422
REMARK  171  A    between atoms: _422  and  _423
REMARK  172  A    between atoms: _425  and  _427
REMARK  173  A    between atoms: _427  and  _428
REMARK  174  A    between atoms: _427  and  _430
REMARK  175  A    between atoms: _433  and  _435
REMARK  176  A    between atoms: _435  and  _436
REMARK  177  A    between atoms: _438  and  _440
REMARK  178  A    between atoms: _440  and  _441
REMARK  179  A    between atoms: _440  and  _443
REMARK  180  A    between atoms: _443  and  _444
REMARK  181  A    between atoms: _447  and  _449
REMARK  182  A    between atoms: _449  and  _450
REMARK  183  A    between atoms: _449  and  _452
REMARK  184  A    between atoms: _452  and  _453
REMARK  185  A    between atoms: _458  and  _460
REMARK  186  A    between atoms: _460  and  _461
REMARK  187  A    between atoms: _460  and  _463
REMARK  188  A    between atoms: _466  and  _468
REMARK  189  A    between atoms: _468  and  _469
REMARK  190  A    between atoms: _468  and  _471
REMARK  191  A    between atoms: _471  and  _472
REMARK  192  A    between atoms: _472  and  _473
REMARK  193  A    between atoms: _478  and  _480
REMARK  194  A    between atoms: _480  and  _481
REMARK  195  A    between atoms: _485  and  _486
REMARK  196  A    between atoms: _491  and  _493
REMARK  197  A    between atoms: _493  and  _494
REMARK  198  A    between atoms: _493  and  _496
REMARK  199  A    between atoms: _496  and  _497
REMARK  200  A    between atoms: _497  and  _498
REMARK  201  A    between atoms: _501  and  _503
REMARK  202  A    between atoms: _503  and  _504
REMARK  203  A    between atoms: _503  and  _506
REMARK  204  A    between atoms: _509  and  _511
REMARK  205  A    between atoms: _511  and  _512
REMARK  206  A    between atoms: _511  and  _514
REMARK  207  A    between atoms: _514  and  _515
REMARK  208  A    between atoms: _519  and  _520
REMARK  209  A    between atoms: _525  and  _527
REMARK  210  A    between atoms: _527  and  _528
REMARK  211  A    between atoms: _527  and  _530
REMARK  212  A    between atoms: _530  and  _531
REMARK  213  A    between atoms: _534  and  _536
REMARK  214  A    between atoms: _536  and  _537
REMARK  215  A    between atoms: _540  and  _542
REMARK  216  A    between atoms: _542  and  _543
REMARK  217  A    between atoms: _542  and  _545
REMARK  218  A    between atoms: _545  and  _546
REMARK  219  A    between atoms: _549  and  _551
REMARK  220  A    between atoms: _551  and  _552
REMARK  221  A    between atoms: _551  and  _554
REMARK  222  A    between atoms: _554  and  _555
REMARK  223  A    between atoms: _557  and  _559
REMARK  224  A    between atoms: _559  and  _560
REMARK  225  A    between atoms: _562  and  _564
REMARK  226  A    between atoms: _564  and  _565
REMARK  227  A    between atoms: _564  and  _567
REMARK  228  A    between atoms: _567  and  _568
REMARK  229  A    between atoms: _571  and  _573
REMARK  230  A    between atoms: _573  and  _574
REMARK  231  A    between atoms: _573  and  _576
REMARK                            x       y       z     vdW  Elec       q    Type
REMARK                         _______ _______ _______ _____ _____    ______ ____
ROOT
ATOM      1  O   HOH     1      -4.793  -6.655   1.960  0.00  0.00    +0.000 OA
ENDROOT
TORSDOF 0
REMARK  Name = ../refined-set-2016/4xu3/4xu3_pocket.pdb
REMARK  231 active torsions:
REMARK  status: ('A' for Active; 'I' for Inactive)
REMARK    1  A    between atoms: _1  and  _3
REMARK    2  A    between atoms: _3  and  _4
REMARK    3  A    between atoms: _3  and  _6
REMARK    4  A    between atoms: _6  and  _7
REMARK    5  A    between atoms: _10  and  _12
REMARK    6  A    between atoms: _12  and  _13
REMARK    7  A    between atoms: _15  and  _17
REMARK    8  A    between atoms: _17  and  _18
REMARK    9  A    between atoms: _17  and  _20
REMARK   10  A    between atoms: _20  and  _21
REMARK   11  A    between atoms: _23  and  _25
REMARK   12  A    between atoms: _25  and  _26
REMARK   13  A    between atoms: _25  and  _28
REMARK   14  A    between atoms: _28  and  _29
REMARK   15  A    between atoms: _32  and  _34
REMARK   16  A    between atoms: _34  and  _35
REMARK   17  A    between atoms: _34  and  _37
REMARK   18  A    between atoms: _37  and  _38
REMARK   19  A    between atoms: _43  and  _45
REMARK   20  A    between atoms: _45  and  _46
REMARK   21  A    between atoms: _49  and  _51
REMARK   22  A    between atoms: _51  and  _52
REMARK   23  A    between atoms: _51  and  _54
REMARK   24  A    between atoms: _54  and  _55
REMARK   25  A    between atoms: _58  and  _60
REMARK   26  A    between atoms: _60  and  _61
REMARK   27  A    between atoms: _60  and  _63
REMARK   28  A    between atoms: _63  and  _64
REMARK   29  A    between atoms: _67  and  _69
REMARK   30  A    between atoms: _69  and  _70
REMARK   31  A    between atoms: _69  and  _72
REMARK   32  A    between atoms: _72  and  _73
REMARK   33  A    between atoms: _76  and  _78
REMARK   34  A    between atoms: _78  and  _79
REMARK   35  A    between atoms: _82  and  _84
REMARK   36  A    between atoms: _84  and  _85
REMARK   37  A    between atoms: _84  and  _87
REMARK   38  A    between atoms: _87  and  _88
REMARK   39  A    between atoms: _88  and  _89
REMARK   40  A    between atoms: _94  and  _96
REMARK   41  A    between atoms: _96  and  _97
REMARK   42  A    between atoms: _96  and  _99
REMARK   43  A    between atoms: _99  and  _100
REMARK   44  A    between atoms: _103  and  _105
REMARK   45  A    between atoms: _105  and  _106
REMARK   46  A    between atoms: _109  and  _111
REMARK   47  A    between atoms: _111  and  _112
REMARK   48  A    between atoms: _114  and  _116
REMARK   49  A    between atoms: _116  and  _117
REMARK   50  A    between atoms: _116  and  _119
REMARK   51  A    between atoms: _119  and  _120
REMARK   52  A    between atoms: _120  and  _121
REMARK   53  A    between atoms: _121  and  _122
REMARK   54  A    between atoms: _131  and  _133
REMARK   55  A    between atoms: _133  and  _134
REMARK   56  A    between atoms: _136  and  _138
REMARK   57  A    between atoms: _138  and  _139
REMARK   58  A    between atoms: _138  and  _141
REMARK   59  A    between atoms: _141  and  _142
REMARK   60  A    between atoms: _142  and  _143
REMARK   61  A    between atoms: _143  and  _144
REMARK   62  A    between atoms: _153  and  _155
REMARK   63  A    between atoms: _155  and  _156
REMARK   64  A    between atoms: _155  and  _158
REMARK   65  A    between atoms: _158  and  _159
REMARK   66  A    between atoms: _164  and  _166
REMARK   67  A    between atoms: _166  and  _167
REMARK   68  A    between atoms: _169  and  _171
REMARK   69  A    between atoms: _171  and  _172
REMARK   70  A    between atoms: _171  and  _174
REMARK   71  A    between atoms: _174  and  _175
REMARK   72  A    between atoms: _175  and  _176
REMARK   73  A    between atoms: _176  and  _177
REMARK   74  A    between atoms: _186  and  _188
REMARK   75  A    between atoms: _188  and  _189
REMARK   76  A    between atoms: _191  and  _193
REMARK   77  A    between atoms: _193  and  _194
REMARK   78  A    between atoms: _193  and  _196
REMARK   79  A    between atoms: _196  and  _197
REMARK   80  A    between atoms: _207  and  _209
REMARK   81  A    between atoms: _209  and  _210
REMARK   82  A    between atoms: _213  and  _215
REMARK   83  A    between atoms: _215  and  _216
REMARK   84  A    between atoms: _219  and  _221
REMARK   85  A    between atoms: _221  and  _222
REMARK   86  A    between atoms: _221  and  _224
REMARK   87  A    between atoms: _224  and  _225
REMARK   88  A    between atoms: _228  and  _230
REMARK   89  A    between atoms: _230  and  _231
REMARK   90  A    between atoms: _230  and  _233
REMARK   91  A    between atoms: _233  and  _234
REMARK   92  A    between atoms: _234  and  _235
REMARK   93  A    between atoms: _240  and  _242
REMARK   94  A    between atoms: _242  and  _243
REMARK   95  A    between atoms: _242  and  _245
REMARK   96  A    between atoms: _245  and  _246
REMARK   97  A    between atoms: _249  and  _251
REMARK   98  A    between atoms: _251  and  _252
REMARK   99  A    between atoms: _251  and  _254
REMARK  100  A    between atoms: _254  and  _255
REMARK  101  A    between atoms: _258  and  _260
REMARK  102  A    between atoms: _260  and  _261
REMARK  103  A    between atoms: _260  and  _263
REMARK  104  A    between atoms: _263  and  _264
REMARK  105  A    between atoms: _267  and  _269
REMARK  106  A    between atoms: _269  and  _270
REMARK  107  A    between atoms: _269  and  _272
REMARK  108  A    between atoms: _272  and  _273
REMARK  109  A    between atoms: _275  and  _277
REMARK  110  A    between atoms: _277  and  _278
REMARK  111  A    between atoms: _277  and  _280
REMARK  112  A    between atoms: _283  and  _285
REMARK  113  A    between atoms: _285  and  _286
REMARK  114  A    between atoms: _285  and  _288
REMARK  115  A    between atoms: _288  and  _289
REMARK  116  A    between atoms: _289  and  _290
REMARK  117  A    between atoms: _290  and  _291
REMARK  118  A    between atoms: _291  and  _292
REMARK  119  A    between atoms: _297  and  _298
REMARK  120  A    between atoms: _303  and  _305
REMARK  121  A    between atoms: _305  and  _306
REMARK  122  A    between atoms: _305  and  _308
REMARK  123  A    between atoms: _308  and  _309
REMARK  124  A    between atoms: _314  and  _316
REMARK  125  A    between atoms: _316  and  _317
REMARK  126  A    between atoms: _316  and  _319
REMARK  127  A    between atoms: _319  and  _320
REMARK  128  A    between atoms: _323  and  _325
REMARK  129  A    between atoms: _325  and  _326
REMARK  130  A    between atoms: _325  and  _328
REMARK  131  A    between atoms: _331  and  _333
REMARK  132  A    between atoms: _333  and  _334
REMARK  133  A    between atoms: _336  and  _338
REMARK  134  A    between atoms: _338  and  _339
REMARK  135  A    between atoms: _338  and  _341
REMARK  136  A    between atoms: _341  and  _342
REMARK  137  A    between atoms: _342  and  _343
REMARK  138  A    between atoms: _343  and  _344
REMARK  139  A    between atoms: _344  and  _345
REMARK  140  A    between atoms: _349  and  _351
REMARK  141  A    between atoms: _351  and  _352
REMARK  142  A    between atoms: _351  and  _354
REMARK  143  A    between atoms: _354  and  _355
REMARK  144  A    between atoms: _358  and  _360
REMARK  145  A    between atoms: _360  and  _361
REMARK  146  A    between atoms: _364  and  _366
REMARK  147  A    between atoms: _366  and  _367
REMARK  148  A    between atoms: _369  and  _371
REMARK  149  A    between atoms: _371  and  _372
REMARK  150  A    between atoms: _371  and  _374
REMARK  151  A    between atoms: _374  and  _375
REMARK  152  A    between atoms: _378  and  _380
REMARK  153  A    between atoms: _380  and  _381
REMARK  154  A    between atoms: _380  and  _383
REMARK  155  A    between atoms: _383  and  _384
REMARK  156  A    between atoms: _387  and  _389
REMARK  157  A    between atoms: _389  and  _390
REMARK  158  A    between atoms: _393  and  _395
REMARK  159  A    between atoms: _395  and  _396
REMARK  160  A    between atoms: _395  and  _398
REMARK  161  A    between atoms: _398  and  _399
REMARK  162  A    between atoms: _399  and  _400
REMARK  163  A    between atoms: _403  and  _405
REMARK  164  A    between atoms: _405  and  _406
REMARK  165  A    between atoms: _405  and  _408
REMARK  166  A    between atoms: _411  and  _413
REMARK  167  A    between atoms: _413  and  _414
REMARK  168  A    between atoms: _413  and  _416
REMARK  169  A    between atoms: _416  and  _417
REMARK  170  A    between atoms: _420  and  _422
REMARK  171  A    between atoms: _422  and  _423
REMARK  172  A    between atoms: _425  and  _427
REMARK  173  A    between atoms: _427  and  _428
REMARK  174  A    between atoms: _427  and  _430
REMARK  175  A    between atoms: _433  and  _435
REMARK  176  A    between atoms: _435  and  _436
REMARK  177  A    between atoms: _438  and  _440
REMARK  178  A    between atoms: _440  and  _441
REMARK  179  A    between atoms: _440  and  _443
REMARK  180  A    between atoms: _443  and  _444
REMARK  181  A    between atoms: _447  and  _449
REMARK  182  A    between atoms: _449  and  _450
REMARK  183  A    between atoms: _449  and  _452
REMARK  184  A    between atoms: _452  and  _453
REMARK  185  A    between atoms: _458  and  _460
REMARK  186  A    between atoms: _460  and  _461
REMARK  187  A    between atoms: _460  and  _463
REMARK  188  A    between atoms: _466  and  _468
REMARK  189  A    between atoms: _468  and  _469
REMARK  190  A    between atoms: _468  and  _471
REMARK  191  A    between atoms: _471  and  _472
REMARK  192  A    between atoms: _472  and  _473
REMARK  193  A    between atoms: _478  and  _480
REMARK  194  A    between atoms: _480  and  _481
REMARK  195  A    between atoms: _485  and  _486
REMARK  196  A    between atoms: _491  and  _493
REMARK  197  A    between atoms: _493  and  _494
REMARK  198  A    between atoms: _493  and  _496
REMARK  199  A    between atoms: _496  and  _497
REMARK  200  A    between atoms: _497  and  _498
REMARK  201  A    between atoms: _501  and  _503
REMARK  202  A    between atoms: _503  and  _504
REMARK  203  A    between atoms: _503  and  _506
REMARK  204  A    between atoms: _509  and  _511
REMARK  205  A    between atoms: _511  and  _512
REMARK  206  A    between atoms: _511  and  _514
REMARK  207  A    between atoms: _514  and  _515
REMARK  208  A    between atoms: _519  and  _520
REMARK  209  A    between atoms: _525  and  _527
REMARK  210  A    between atoms: _527  and  _528
REMARK  211  A    between atoms: _527  and  _530
REMARK  212  A    between atoms: _530  and  _531
REMARK  213  A    between atoms: _534  and  _536
REMARK  214  A    between atoms: _536  and  _537
REMARK  215  A    between atoms: _540  and  _542
REMARK  216  A    between atoms: _542  and  _543
REMARK  217  A    between atoms: _542  and  _545
REMARK  218  A    between atoms: _545  and  _546
REMARK  219  A    between atoms: _549  and  _551
REMARK  220  A    between atoms: _551  and  _552
REMARK  221  A    between atoms: _551  and  _554
REMARK  222  A    between atoms: _554  and  _555
REMARK  223  A    between atoms: _557  and  _559
REMARK  224  A    between atoms: _559  and  _560
REMARK  225  A    between atoms: _562  and  _564
REMARK  226  A    between atoms: _564  and  _565
REMARK  227  A    between atoms: _564  and  _567
REMARK  228  A    between atoms: _567  and  _568
REMARK  229  A    between atoms: _571  and  _573
REMARK  230  A    between atoms: _573  and  _574
REMARK  231  A    between atoms: _573  and  _576
REMARK                            x       y       z     vdW  Elec       q    Type
REMARK                         _______ _______ _______ _____ _____    ______ ____
ROOT
ATOM      1  O   HOH     1      -4.072  -9.523   0.174  0.00  0.00    +0.000 OA
ENDROOT
TORSDOF 0
REMARK  Name = ../refined-set-2016/4xu3/4xu3_pocket.pdb
REMARK  231 active torsions:
REMARK  status: ('A' for Active; 'I' for Inactive)
REMARK    1  A    between atoms: _1  and  _3
REMARK    2  A    between atoms: _3  and  _4
REMARK    3  A    between atoms: _3  and  _6
REMARK    4  A    between atoms: _6  and  _7
REMARK    5  A    between atoms: _10  and  _12
REMARK    6  A    between atoms: _12  and  _13
REMARK    7  A    between atoms: _15  and  _17
REMARK    8  A    between atoms: _17  and  _18
REMARK    9  A    between atoms: _17  and  _20
REMARK   10  A    between atoms: _20  and  _21
REMARK   11  A    between atoms: _23  and  _25
REMARK   12  A    between atoms: _25  and  _26
REMARK   13  A    between atoms: _25  and  _28
REMARK   14  A    between atoms: _28  and  _29
REMARK   15  A    between atoms: _32  and  _34
REMARK   16  A    between atoms: _34  and  _35
REMARK   17  A    between atoms: _34  and  _37
REMARK   18  A    between atoms: _37  and  _38
REMARK   19  A    between atoms: _43  and  _45
REMARK   20  A    between atoms: _45  and  _46
REMARK   21  A    between atoms: _49  and  _51
REMARK   22  A    between atoms: _51  and  _52
REMARK   23  A    between atoms: _51  and  _54
REMARK   24  A    between atoms: _54  and  _55
REMARK   25  A    between atoms: _58  and  _60
REMARK   26  A    between atoms: _60  and  _61
REMARK   27  A    between atoms: _60  and  _63
REMARK   28  A    between atoms: _63  and  _64
REMARK   29  A    between atoms: _67  and  _69
REMARK   30  A    between atoms: _69  and  _70
REMARK   31  A    between atoms: _69  and  _72
REMARK   32  A    between atoms: _72  and  _73
REMARK   33  A    between atoms: _76  and  _78
REMARK   34  A    between atoms: _78  and  _79
REMARK   35  A    between atoms: _82  and  _84
REMARK   36  A    between atoms: _84  and  _85
REMARK   37  A    between atoms: _84  and  _87
REMARK   38  A    between atoms: _87  and  _88
REMARK   39  A    between atoms: _88  and  _89
REMARK   40  A    between atoms: _94  and  _96
REMARK   41  A    between atoms: _96  and  _97
REMARK   42  A    between atoms: _96  and  _99
REMARK   43  A    between atoms: _99  and  _100
REMARK   44  A    between atoms: _103  and  _105
REMARK   45  A    between atoms: _105  and  _106
REMARK   46  A    between atoms: _109  and  _111
REMARK   47  A    between atoms: _111  and  _112
REMARK   48  A    between atoms: _114  and  _116
REMARK   49  A    between atoms: _116  and  _117
REMARK   50  A    between atoms: _116  and  _119
REMARK   51  A    between atoms: _119  and  _120
REMARK   52  A    between atoms: _120  and  _121
REMARK   53  A    between atoms: _121  and  _122
REMARK   54  A    between atoms: _131  and  _133
REMARK   55  A    between atoms: _133  and  _134
REMARK   56  A    between atoms: _136  and  _138
REMARK   57  A    between atoms: _138  and  _139
REMARK   58  A    between atoms: _138  and  _141
REMARK   59  A    between atoms: _141  and  _142
REMARK   60  A    between atoms: _142  and  _143
REMARK   61  A    between atoms: _143  and  _144
REMARK   62  A    between atoms: _153  and  _155
REMARK   63  A    between atoms: _155  and  _156
REMARK   64  A    between atoms: _155  and  _158
REMARK   65  A    between atoms: _158  and  _159
REMARK   66  A    between atoms: _164  and  _166
REMARK   67  A    between atoms: _166  and  _167
REMARK   68  A    between atoms: _169  and  _171
REMARK   69  A    between atoms: _171  and  _172
REMARK   70  A    between atoms: _171  and  _174
REMARK   71  A    between atoms: _174  and  _175
REMARK   72  A    between atoms: _175  and  _176
REMARK   73  A    between atoms: _176  and  _177
REMARK   74  A    between atoms: _186  and  _188
REMARK   75  A    between atoms: _188  and  _189
REMARK   76  A    between atoms: _191  and  _193
REMARK   77  A    between atoms: _193  and  _194
REMARK   78  A    between atoms: _193  and  _196
REMARK   79  A    between atoms: _196  and  _197
REMARK   80  A    between atoms: _207  and  _209
REMARK   81  A    between atoms: _209  and  _210
REMARK   82  A    between atoms: _213  and  _215
REMARK   83  A    between atoms: _215  and  _216
REMARK   84  A    between atoms: _219  and  _221
REMARK   85  A    between atoms: _221  and  _222
REMARK   86  A    between atoms: _221  and  _224
REMARK   87  A    between atoms: _224  and  _225
REMARK   88  A    between atoms: _228  and  _230
REMARK   89  A    between atoms: _230  and  _231
REMARK   90  A    between atoms: _230  and  _233
REMARK   91  A    between atoms: _233  and  _234
REMARK   92  A    between atoms: _234  and  _235
REMARK   93  A    between atoms: _240  and  _242
REMARK   94  A    between atoms: _242  and  _243
REMARK   95  A    between atoms: _242  and  _245
REMARK   96  A    between atoms: _245  and  _246
REMARK   97  A    between atoms: _249  and  _251
REMARK   98  A    between atoms: _251  and  _252
REMARK   99  A    between atoms: _251  and  _254
REMARK  100  A    between atoms: _254  and  _255
REMARK  101  A    between atoms: _258  and  _260
REMARK  102  A    between atoms: _260  and  _261
REMARK  103  A    between atoms: _260  and  _263
REMARK  104  A    between atoms: _263  and  _264
REMARK  105  A    between atoms: _267  and  _269
REMARK  106  A    between atoms: _269  and  _270
REMARK  107  A    between atoms: _269  and  _272
REMARK  108  A    between atoms: _272  and  _273
REMARK  109  A    between atoms: _275  and  _277
REMARK  110  A    between atoms: _277  and  _278
REMARK  111  A    between atoms: _277  and  _280
REMARK  112  A    between atoms: _283  and  _285
REMARK  113  A    between atoms: _285  and  _286
REMARK  114  A    between atoms: _285  and  _288
REMARK  115  A    between atoms: _288  and  _289
REMARK  116  A    between atoms: _289  and  _290
REMARK  117  A    between atoms: _290  and  _291
REMARK  118  A    between atoms: _291  and  _292
REMARK  119  A    between atoms: _297  and  _298
REMARK  120  A    between atoms: _303  and  _305
REMARK  121  A    between atoms: _305  and  _306
REMARK  122  A    between atoms: _305  and  _308
REMARK  123  A    between atoms: _308  and  _309
REMARK  124  A    between atoms: _314  and  _316
REMARK  125  A    between atoms: _316  and  _317
REMARK  126  A    between atoms: _316  and  _319
REMARK  127  A    between atoms: _319  and  _320
REMARK  128  A    between atoms: _323  and  _325
REMARK  129  A    between atoms: _325  and  _326
REMARK  130  A    between atoms: _325  and  _328
REMARK  131  A    between atoms: _331  and  _333
REMARK  132  A    between atoms: _333  and  _334
REMARK  133  A    between atoms: _336  and  _338
REMARK  134  A    between atoms: _338  and  _339
REMARK  135  A    between atoms: _338  and  _341
REMARK  136  A    between atoms: _341  and  _342
REMARK  137  A    between atoms: _342  and  _343
REMARK  138  A    between atoms: _343  and  _344
REMARK  139  A    between atoms: _344  and  _345
REMARK  140  A    between atoms: _349  and  _351
REMARK  141  A    between atoms: _351  and  _352
REMARK  142  A    between atoms: _351  and  _354
REMARK  143  A    between atoms: _354  and  _355
REMARK  144  A    between atoms: _358  and  _360
REMARK  145  A    between atoms: _360  and  _361
REMARK  146  A    between atoms: _364  and  _366
REMARK  147  A    between atoms: _366  and  _367
REMARK  148  A    between atoms: _369  and  _371
REMARK  149  A    between atoms: _371  and  _372
REMARK  150  A    between atoms: _371  and  _374
REMARK  151  A    between atoms: _374  and  _375
REMARK  152  A    between atoms: _378  and  _380
REMARK  153  A    between atoms: _380  and  _381
REMARK  154  A    between atoms: _380  and  _383
REMARK  155  A    between atoms: _383  and  _384
REMARK  156  A    between atoms: _387  and  _389
REMARK  157  A    between atoms: _389  and  _390
REMARK  158  A    between atoms: _393  and  _395
REMARK  159  A    between atoms: _395  and  _396
REMARK  160  A    between atoms: _395  and  _398
REMARK  161  A    between atoms: _398  and  _399
REMARK  162  A    between atoms: _399  and  _400
REMARK  163  A    between atoms: _403  and  _405
REMARK  164  A    between atoms: _405  and  _406
REMARK  165  A    between atoms: _405  and  _408
REMARK  166  A    between atoms: _411  and  _413
REMARK  167  A    between atoms: _413  and  _414
REMARK  168  A    between atoms: _413  and  _416
REMARK  169  A    between atoms: _416  and  _417
REMARK  170  A    between atoms: _420  and  _422
REMARK  171  A    between atoms: _422  and  _423
REMARK  172  A    between atoms: _425  and  _427
REMARK  173  A    between atoms: _427  and  _428
REMARK  174  A    between atoms: _427  and  _430
REMARK  175  A    between atoms: _433  and  _435
REMARK  176  A    between atoms: _435  and  _436
REMARK  177  A    between atoms: _438  and  _440
REMARK  178  A    between atoms: _440  and  _441
REMARK  179  A    between atoms: _440  and  _443
REMARK  180  A    between atoms: _443  and  _444
REMARK  181  A    between atoms: _447  and  _449
REMARK  182  A    between atoms: _449  and  _450
REMARK  183  A    between atoms: _449  and  _452
REMARK  184  A    between atoms: _452  and  _453
REMARK  185  A    between atoms: _458  and  _460
REMARK  186  A    between atoms: _460  and  _461
REMARK  187  A    between atoms: _460  and  _463
REMARK  188  A    between atoms: _466  and  _468
REMARK  189  A    between atoms: _468  and  _469
REMARK  190  A    between atoms: _468  and  _471
REMARK  191  A    between atoms: _471  and  _472
REMARK  192  A    between atoms: _472  and  _473
REMARK  193  A    between atoms: _478  and  _480
REMARK  194  A    between atoms: _480  and  _481
REMARK  195  A    between atoms: _485  and  _486
REMARK  196  A    between atoms: _491  and  _493
REMARK  197  A    between atoms: _493  and  _494
REMARK  198  A    between atoms: _493  and  _496
REMARK  199  A    between atoms: _496  and  _497
REMARK  200  A    between atoms: _497  and  _498
REMARK  201  A    between atoms: _501  and  _503
REMARK  202  A    between atoms: _503  and  _504
REMARK  203  A    between atoms: _503  and  _506
REMARK  204  A    between atoms: _509  and  _511
REMARK  205  A    between atoms: _511  and  _512
REMARK  206  A    between atoms: _511  and  _514
REMARK  207  A    between atoms: _514  and  _515
REMARK  208  A    between atoms: _519  and  _520
REMARK  209  A    between atoms: _525  and  _527
REMARK  210  A    between atoms: _527  and  _528
REMARK  211  A    between atoms: _527  and  _530
REMARK  212  A    between atoms: _530  and  _531
REMARK  213  A    between atoms: _534  and  _536
REMARK  214  A    between atoms: _536  and  _537
REMARK  215  A    between atoms: _540  and  _542
REMARK  216  A    between atoms: _542  and  _543
REMARK  217  A    between atoms: _542  and  _545
REMARK  218  A    between atoms: _545  and  _546
REMARK  219  A    between atoms: _549  and  _551
REMARK  220  A    between atoms: _551  and  _552
REMARK  221  A    between atoms: _551  and  _554
REMARK  222  A    between atoms: _554  and  _555
REMARK  223  A    between atoms: _557  and  _559
REMARK  224  A    between atoms: _559  and  _560
REMARK  225  A    between atoms: _562  and  _564
REMARK  226  A    between atoms: _564  and  _565
REMARK  227  A    between atoms: _564  and  _567
REMARK  228  A    between atoms: _567  and  _568
REMARK  229  A    between atoms: _571  and  _573
REMARK  230  A    between atoms: _573  and  _574
REMARK  231  A    between atoms: _573  and  _576
REMARK                            x       y       z     vdW  Elec       q    Type
REMARK                         _______ _______ _______ _____ _____    ______ ____
ROOT
ATOM      1  O   HOH     1      -6.557  -2.009   6.003  0.00  0.00    +0.000 OA
ENDROOT
TORSDOF 0
REMARK  Name = ../refined-set-2016/4xu3/4xu3_pocket.pdb
REMARK  231 active torsions:
REMARK  status: ('A' for Active; 'I' for Inactive)
REMARK    1  A    between atoms: _1  and  _3
REMARK    2  A    between atoms: _3  and  _4
REMARK    3  A    between atoms: _3  and  _6
REMARK    4  A    between atoms: _6  and  _7
REMARK    5  A    between atoms: _10  and  _12
REMARK    6  A    between atoms: _12  and  _13
REMARK    7  A    between atoms: _15  and  _17
REMARK    8  A    between atoms: _17  and  _18
REMARK    9  A    between atoms: _17  and  _20
REMARK   10  A    between atoms: _20  and  _21
REMARK   11  A    between atoms: _23  and  _25
REMARK   12  A    between atoms: _25  and  _26
REMARK   13  A    between atoms: _25  and  _28
REMARK   14  A    between atoms: _28  and  _29
REMARK   15  A    between atoms: _32  and  _34
REMARK   16  A    between atoms: _34  and  _35
REMARK   17  A    between atoms: _34  and  _37
REMARK   18  A    between atoms: _37  and  _38
REMARK   19  A    between atoms: _43  and  _45
REMARK   20  A    between atoms: _45  and  _46
REMARK   21  A    between atoms: _49  and  _51
REMARK   22  A    between atoms: _51  and  _52
REMARK   23  A    between atoms: _51  and  _54
REMARK   24  A    between atoms: _54  and  _55
REMARK   25  A    between atoms: _58  and  _60
REMARK   26  A    between atoms: _60  and  _61
REMARK   27  A    between atoms: _60  and  _63
REMARK   28  A    between atoms: _63  and  _64
REMARK   29  A    between atoms: _67  and  _69
REMARK   30  A    between atoms: _69  and  _70
REMARK   31  A    between atoms: _69  and  _72
REMARK   32  A    between atoms: _72  and  _73
REMARK   33  A    between atoms: _76  and  _78
REMARK   34  A    between atoms: _78  and  _79
REMARK   35  A    between atoms: _82  and  _84
REMARK   36  A    between atoms: _84  and  _85
REMARK   37  A    between atoms: _84  and  _87
REMARK   38  A    between atoms: _87  and  _88
REMARK   39  A    between atoms: _88  and  _89
REMARK   40  A    between atoms: _94  and  _96
REMARK   41  A    between atoms: _96  and  _97
REMARK   42  A    between atoms: _96  and  _99
REMARK   43  A    between atoms: _99  and  _100
REMARK   44  A    between atoms: _103  and  _105
REMARK   45  A    between atoms: _105  and  _106
REMARK   46  A    between atoms: _109  and  _111
REMARK   47  A    between atoms: _111  and  _112
REMARK   48  A    between atoms: _114  and  _116
REMARK   49  A    between atoms: _116  and  _117
REMARK   50  A    between atoms: _116  and  _119
REMARK   51  A    between atoms: _119  and  _120
REMARK   52  A    between atoms: _120  and  _121
REMARK   53  A    between atoms: _121  and  _122
REMARK   54  A    between atoms: _131  and  _133
REMARK   55  A    between atoms: _133  and  _134
REMARK   56  A    between atoms: _136  and  _138
REMARK   57  A    between atoms: _138  and  _139
REMARK   58  A    between atoms: _138  and  _141
REMARK   59  A    between atoms: _141  and  _142
REMARK   60  A    between atoms: _142  and  _143
REMARK   61  A    between atoms: _143  and  _144
REMARK   62  A    between atoms: _153  and  _155
REMARK   63  A    between atoms: _155  and  _156
REMARK   64  A    between atoms: _155  and  _158
REMARK   65  A    between atoms: _158  and  _159
REMARK   66  A    between atoms: _164  and  _166
REMARK   67  A    between atoms: _166  and  _167
REMARK   68  A    between atoms: _169  and  _171
REMARK   69  A    between atoms: _171  and  _172
REMARK   70  A    between atoms: _171  and  _174
REMARK   71  A    between atoms: _174  and  _175
REMARK   72  A    between atoms: _175  and  _176
REMARK   73  A    between atoms: _176  and  _177
REMARK   74  A    between atoms: _186  and  _188
REMARK   75  A    between atoms: _188  and  _189
REMARK   76  A    between atoms: _191  and  _193
REMARK   77  A    between atoms: _193  and  _194
REMARK   78  A    between atoms: _193  and  _196
REMARK   79  A    between atoms: _196  and  _197
REMARK   80  A    between atoms: _207  and  _209
REMARK   81  A    between atoms: _209  and  _210
REMARK   82  A    between atoms: _213  and  _215
REMARK   83  A    between atoms: _215  and  _216
REMARK   84  A    between atoms: _219  and  _221
REMARK   85  A    between atoms: _221  and  _222
REMARK   86  A    between atoms: _221  and  _224
REMARK   87  A    between atoms: _224  and  _225
REMARK   88  A    between atoms: _228  and  _230
REMARK   89  A    between atoms: _230  and  _231
REMARK   90  A    between atoms: _230  and  _233
REMARK   91  A    between atoms: _233  and  _234
REMARK   92  A    between atoms: _234  and  _235
REMARK   93  A    between atoms: _240  and  _242
REMARK   94  A    between atoms: _242  and  _243
REMARK   95  A    between atoms: _242  and  _245
REMARK   96  A    between atoms: _245  and  _246
REMARK   97  A    between atoms: _249  and  _251
REMARK   98  A    between atoms: _251  and  _252
REMARK   99  A    between atoms: _251  and  _254
REMARK  100  A    between atoms: _254  and  _255
REMARK  101  A    between atoms: _258  and  _260
REMARK  102  A    between atoms: _260  and  _261
REMARK  103  A    between atoms: _260  and  _263
REMARK  104  A    between atoms: _263  and  _264
REMARK  105  A    between atoms: _267  and  _269
REMARK  106  A    between atoms: _269  and  _270
REMARK  107  A    between atoms: _269  and  _272
REMARK  108  A    between atoms: _272  and  _273
REMARK  109  A    between atoms: _275  and  _277
REMARK  110  A    between atoms: _277  and  _278
REMARK  111  A    between atoms: _277  and  _280
REMARK  112  A    between atoms: _283  and  _285
REMARK  113  A    between atoms: _285  and  _286
REMARK  114  A    between atoms: _285  and  _288
REMARK  115  A    between atoms: _288  and  _289
REMARK  116  A    between atoms: _289  and  _290
REMARK  117  A    between atoms: _290  and  _291
REMARK  118  A    between atoms: _291  and  _292
REMARK  119  A    between atoms: _297  and  _298
REMARK  120  A    between atoms: _303  and  _305
REMARK  121  A    between atoms: _305  and  _306
REMARK  122  A    between atoms: _305  and  _308
REMARK  123  A    between atoms: _308  and  _309
REMARK  124  A    between atoms: _314  and  _316
REMARK  125  A    between atoms: _316  and  _317
REMARK  126  A    between atoms: _316  and  _319
REMARK  127  A    between atoms: _319  and  _320
REMARK  128  A    between atoms: _323  and  _325
REMARK  129  A    between atoms: _325  and  _326
REMARK  130  A    between atoms: _325  and  _328
REMARK  131  A    between atoms: _331  and  _333
REMARK  132  A    between atoms: _333  and  _334
REMARK  133  A    between atoms: _336  and  _338
REMARK  134  A    between atoms: _338  and  _339
REMARK  135  A    between atoms: _338  and  _341
REMARK  136  A    between atoms: _341  and  _342
REMARK  137  A    between atoms: _342  and  _343
REMARK  138  A    between atoms: _343  and  _344
REMARK  139  A    between atoms: _344  and  _345
REMARK  140  A    between atoms: _349  and  _351
REMARK  141  A    between atoms: _351  and  _352
REMARK  142  A    between atoms: _351  and  _354
REMARK  143  A    between atoms: _354  and  _355
REMARK  144  A    between atoms: _358  and  _360
REMARK  145  A    between atoms: _360  and  _361
REMARK  146  A    between atoms: _364  and  _366
REMARK  147  A    between atoms: _366  and  _367
REMARK  148  A    between atoms: _369  and  _371
REMARK  149  A    between atoms: _371  and  _372
REMARK  150  A    between atoms: _371  and  _374
REMARK  151  A    between atoms: _374  and  _375
REMARK  152  A    between atoms: _378  and  _380
REMARK  153  A    between atoms: _380  and  _381
REMARK  154  A    between atoms: _380  and  _383
REMARK  155  A    between atoms: _383  and  _384
REMARK  156  A    between atoms: _387  and  _389
REMARK  157  A    between atoms: _389  and  _390
REMARK  158  A    between atoms: _393  and  _395
REMARK  159  A    between atoms: _395  and  _396
REMARK  160  A    between atoms: _395  and  _398
REMARK  161  A    between atoms: _398  and  _399
REMARK  162  A    between atoms: _399  and  _400
REMARK  163  A    between atoms: _403  and  _405
REMARK  164  A    between atoms: _405  and  _406
REMARK  165  A    between atoms: _405  and  _408
REMARK  166  A    between atoms: _411  and  _413
REMARK  167  A    between atoms: _413  and  _414
REMARK  168  A    between atoms: _413  and  _416
REMARK  169  A    between atoms: _416  and  _417
REMARK  170  A    between atoms: _420  and  _422
REMARK  171  A    between atoms: _422  and  _423
REMARK  172  A    between atoms: _425  and  _427
REMARK  173  A    between atoms: _427  and  _428
REMARK  174  A    between atoms: _427  and  _430
REMARK  175  A    between atoms: _433  and  _435
REMARK  176  A    between atoms: _435  and  _436
REMARK  177  A    between atoms: _438  and  _440
REMARK  178  A    between atoms: _440  and  _441
REMARK  179  A    between atoms: _440  and  _443
REMARK  180  A    between atoms: _443  and  _444
REMARK  181  A    between atoms: _447  and  _449
REMARK  182  A    between atoms: _449  and  _450
REMARK  183  A    between atoms: _449  and  _452
REMARK  184  A    between atoms: _452  and  _453
REMARK  185  A    between atoms: _458  and  _460
REMARK  186  A    between atoms: _460  and  _461
REMARK  187  A    between atoms: _460  and  _463
REMARK  188  A    between atoms: _466  and  _468
REMARK  189  A    between atoms: _468  and  _469
REMARK  190  A    between atoms: _468  and  _471
REMARK  191  A    between atoms: _471  and  _472
REMARK  192  A    between atoms: _472  and  _473
REMARK  193  A    between atoms: _478  and  _480
REMARK  194  A    between atoms: _480  and  _481
REMARK  195  A    between atoms: _485  and  _486
REMARK  196  A    between atoms: _491  and  _493
REMARK  197  A    between atoms: _493  and  _494
REMARK  198  A    between atoms: _493  and  _496
REMARK  199  A    between atoms: _496  and  _497
REMARK  200  A    between atoms: _497  and  _498
REMARK  201  A    between atoms: _501  and  _503
REMARK  202  A    between atoms: _503  and  _504
REMARK  203  A    between atoms: _503  and  _506
REMARK  204  A    between atoms: _509  and  _511
REMARK  205  A    between atoms: _511  and  _512
REMARK  206  A    between atoms: _511  and  _514
REMARK  207  A    between atoms: _514  and  _515
REMARK  208  A    between atoms: _519  and  _520
REMARK  209  A    between atoms: _525  and  _527
REMARK  210  A    between atoms: _527  and  _528
REMARK  211  A    between atoms: _527  and  _530
REMARK  212  A    between atoms: _530  and  _531
REMARK  213  A    between atoms: _534  and  _536
REMARK  214  A    between atoms: _536  and  _537
REMARK  215  A    between atoms: _540  and  _542
REMARK  216  A    between atoms: _542  and  _543
REMARK  217  A    between atoms: _542  and  _545
REMARK  218  A    between atoms: _545  and  _546
REMARK  219  A    between atoms: _549  and  _551
REMARK  220  A    between atoms: _551  and  _552
REMARK  221  A    between atoms: _551  and  _554
REMARK  222  A    between atoms: _554  and  _555
REMARK  223  A    between atoms: _557  and  _559
REMARK  224  A    between atoms: _559  and  _560
REMARK  225  A    between atoms: _562  and  _564
REMARK  226  A    between atoms: _564  and  _565
REMARK  227  A    between atoms: _564  and  _567
REMARK  228  A    between atoms: _567  and  _568
REMARK  229  A    between atoms: _571  and  _573
REMARK  230  A    between atoms: _573  and  _574
REMARK  231  A    between atoms: _573  and  _576
REMARK                            x       y       z     vdW  Elec       q    Type
REMARK                         _______ _______ _______ _____ _____    ______ ____
ROOT
ATOM      1  O   HOH     1      -8.113   0.819   8.577  0.00  0.00    +0.000 OA
ENDROOT
TORSDOF 0
