REMARK  Name = ../refined-set-2016/1xr9/1xr9_pocket.pdb
REMARK  377 active torsions:
REMARK  status: ('A' for Active; 'I' for Inactive)
REMARK    1  A    between atoms: _1  and  _3
REMARK    2  A    between atoms: _3  and  _4
REMARK    3  A    between atoms: _3  and  _6
REMARK    4  A    between atoms: _6  and  _7
REMARK    5  A    between atoms: _7  and  _8
REMARK    6  A    between atoms: _10  and  _12
REMARK    7  A    between atoms: _12  and  _13
REMARK    8  A    between atoms: _12  and  _15
REMARK    9  A    between atoms: _15  and  _16
REMARK   10  A    between atoms: _16  and  _17
REMARK   11  A    between atoms: _17  and  _18
REMARK   12  A    between atoms: _27  and  _29
REMARK   13  A    between atoms: _29  and  _30
REMARK   14  A    between atoms: _29  and  _32
REMARK   15  A    between atoms: _32  and  _33
REMARK   16  A    between atoms: _38  and  _39
REMARK   17  A    between atoms: _41  and  _43
REMARK   18  A    between atoms: _43  and  _44
REMARK   19  A    between atoms: _43  and  _46
REMARK   20  A    between atoms: _46  and  _47
REMARK   21  A    between atoms: _53  and  _55
REMARK   22  A    between atoms: _55  and  _56
REMARK   23  A    between atoms: _55  and  _58
REMARK   24  A    between atoms: _58  and  _59
REMARK   25  A    between atoms: _64  and  _65
REMARK   26  A    between atoms: _67  and  _69
REMARK   27  A    between atoms: _69  and  _70
REMARK   28  A    between atoms: _69  and  _72
REMARK   29  A    between atoms: _72  and  _73
REMARK   30  A    between atoms: _79  and  _81
REMARK   31  A    between atoms: _81  and  _82
REMARK   32  A    between atoms: _85  and  _87
REMARK   33  A    between atoms: _87  and  _88
REMARK   34  A    between atoms: _87  and  _90
REMARK   35  A    between atoms: _93  and  _95
REMARK   36  A    between atoms: _95  and  _96
REMARK   37  A    between atoms: _98  and  _100
REMARK   38  A    between atoms: _100  and  _101
REMARK   39  A    between atoms: _100  and  _103
REMARK   40  A    between atoms: _106  and  _108
REMARK   41  A    between atoms: _108  and  _109
REMARK   42  A    between atoms: _108  and  _111
REMARK   43  A    between atoms: _111  and  _112
REMARK   44  A    between atoms: _118  and  _120
REMARK   45  A    between atoms: _120  and  _121
REMARK   46  A    between atoms: _120  and  _123
REMARK   47  A    between atoms: _126  and  _128
REMARK   48  A    between atoms: _128  and  _129
REMARK   49  A    between atoms: _128  and  _131
REMARK   50  A    between atoms: _131  and  _132
REMARK   51  A    between atoms: _138  and  _140
REMARK   52  A    between atoms: _140  and  _141
REMARK   53  A    between atoms: _140  and  _143
REMARK   54  A    between atoms: _143  and  _144
REMARK   55  A    between atoms: _144  and  _145
REMARK   56  A    between atoms: _147  and  _149
REMARK   57  A    between atoms: _149  and  _150
REMARK   58  A    between atoms: _149  and  _152
REMARK   59  A    between atoms: _152  and  _153
REMARK   60  A    between atoms: _156  and  _158
REMARK   61  A    between atoms: _158  and  _159
REMARK   62  A    between atoms: _158  and  _161
REMARK   63  A    between atoms: _161  and  _162
REMARK   64  A    between atoms: _162  and  _163
REMARK   65  A    between atoms: _166  and  _168
REMARK   66  A    between atoms: _168  and  _169
REMARK   67  A    between atoms: _168  and  _171
REMARK   68  A    between atoms: _171  and  _172
REMARK   69  A    between atoms: _172  and  _173
REMARK   70  A    between atoms: _176  and  _178
REMARK   71  A    between atoms: _178  and  _179
REMARK   72  A    between atoms: _178  and  _181
REMARK   73  A    between atoms: _181  and  _182
REMARK   74  A    between atoms: _187  and  _188
REMARK   75  A    between atoms: _190  and  _192
REMARK   76  A    between atoms: _192  and  _193
REMARK   77  A    between atoms: _192  and  _195
REMARK   78  A    between atoms: _195  and  _196
REMARK   79  A    between atoms: _206  and  _208
REMARK   80  A    between atoms: _208  and  _209
REMARK   81  A    between atoms: _208  and  _211
REMARK   82  A    between atoms: _211  and  _212
REMARK   83  A    between atoms: _215  and  _217
REMARK   84  A    between atoms: _217  and  _218
REMARK   85  A    between atoms: _217  and  _220
REMARK   86  A    between atoms: _220  and  _221
REMARK   87  A    between atoms: _221  and  _222
REMARK   88  A    between atoms: _222  and  _223
REMARK   89  A    between atoms: _232  and  _234
REMARK   90  A    between atoms: _234  and  _235
REMARK   91  A    between atoms: _234  and  _237
REMARK   92  A    between atoms: _237  and  _238
REMARK   93  A    between atoms: _238  and  _239
REMARK   94  A    between atoms: _242  and  _244
REMARK   95  A    between atoms: _244  and  _245
REMARK   96  A    between atoms: _244  and  _247
REMARK   97  A    between atoms: _247  and  _248
REMARK   98  A    between atoms: _251  and  _253
REMARK   99  A    between atoms: _253  and  _254
REMARK  100  A    between atoms: _253  and  _256
REMARK  101  A    between atoms: _256  and  _257
REMARK  102  A    between atoms: _257  and  _258
REMARK  103  A    between atoms: _263  and  _265
REMARK  104  A    between atoms: _265  and  _266
REMARK  105  A    between atoms: _265  and  _268
REMARK  106  A    between atoms: _268  and  _269
REMARK  107  A    between atoms: _272  and  _274
REMARK  108  A    between atoms: _274  and  _275
REMARK  109  A    between atoms: _274  and  _277
REMARK  110  A    between atoms: _277  and  _278
REMARK  111  A    between atoms: _280  and  _282
REMARK  112  A    between atoms: _282  and  _283
REMARK  113  A    between atoms: _282  and  _285
REMARK  114  A    between atoms: _285  and  _286
REMARK  115  A    between atoms: _286  and  _287
REMARK  116  A    between atoms: _287  and  _288
REMARK  117  A    between atoms: _288  and  _289
REMARK  118  A    between atoms: _293  and  _295
REMARK  119  A    between atoms: _295  and  _296
REMARK  120  A    between atoms: _295  and  _298
REMARK  121  A    between atoms: _298  and  _299
REMARK  122  A    between atoms: _302  and  _304
REMARK  123  A    between atoms: _304  and  _305
REMARK  124  A    between atoms: _304  and  _307
REMARK  125  A    between atoms: _307  and  _308
REMARK  126  A    between atoms: _313  and  _315
REMARK  127  A    between atoms: _315  and  _316
REMARK  128  A    between atoms: _315  and  _318
REMARK  129  A    between atoms: _318  and  _319
REMARK  130  A    between atoms: _319  and  _320
REMARK  131  A    between atoms: _325  and  _327
REMARK  132  A    between atoms: _327  and  _328
REMARK  133  A    between atoms: _327  and  _330
REMARK  134  A    between atoms: _330  and  _331
REMARK  135  A    between atoms: _334  and  _336
REMARK  136  A    between atoms: _336  and  _337
REMARK  137  A    between atoms: _336  and  _339
REMARK  138  A    between atoms: _339  and  _340
REMARK  139  A    between atoms: _345  and  _346
REMARK  140  A    between atoms: _348  and  _350
REMARK  141  A    between atoms: _350  and  _351
REMARK  142  A    between atoms: _350  and  _353
REMARK  143  A    between atoms: _353  and  _354
REMARK  144  A    between atoms: _354  and  _355
REMARK  145  A    between atoms: _355  and  _356
REMARK  146  A    between atoms: _365  and  _367
REMARK  147  A    between atoms: _367  and  _368
REMARK  148  A    between atoms: _367  and  _370
REMARK  149  A    between atoms: _370  and  _371
REMARK  150  A    between atoms: _371  and  _372
REMARK  151  A    between atoms: _375  and  _377
REMARK  152  A    between atoms: _377  and  _378
REMARK  153  A    between atoms: _377  and  _380
REMARK  154  A    between atoms: _380  and  _381
REMARK  155  A    between atoms: _383  and  _385
REMARK  156  A    between atoms: _385  and  _386
REMARK  157  A    between atoms: _385  and  _388
REMARK  158  A    between atoms: _388  and  _389
REMARK  159  A    between atoms: _392  and  _394
REMARK  160  A    between atoms: _394  and  _395
REMARK  161  A    between atoms: _394  and  _397
REMARK  162  A    between atoms: _397  and  _398
REMARK  163  A    between atoms: _398  and  _399
REMARK  164  A    between atoms: _399  and  _400
REMARK  165  A    between atoms: _409  and  _411
REMARK  166  A    between atoms: _411  and  _412
REMARK  167  A    between atoms: _411  and  _414
REMARK  168  A    between atoms: _414  and  _415
REMARK  169  A    between atoms: _420  and  _422
REMARK  170  A    between atoms: _422  and  _423
REMARK  171  A    between atoms: _422  and  _425
REMARK  172  A    between atoms: _425  and  _426
REMARK  173  A    between atoms: _429  and  _431
REMARK  174  A    between atoms: _431  and  _432
REMARK  175  A    between atoms: _431  and  _434
REMARK  176  A    between atoms: _434  and  _435
REMARK  177  A    between atoms: _440  and  _441
REMARK  178  A    between atoms: _443  and  _445
REMARK  179  A    between atoms: _445  and  _446
REMARK  180  A    between atoms: _445  and  _448
REMARK  181  A    between atoms: _448  and  _449
REMARK  182  A    between atoms: _452  and  _454
REMARK  183  A    between atoms: _454  and  _455
REMARK  184  A    between atoms: _454  and  _457
REMARK  185  A    between atoms: _457  and  _458
REMARK  186  A    between atoms: _458  and  _459
REMARK  187  A    between atoms: _464  and  _466
REMARK  188  A    between atoms: _466  and  _467
REMARK  189  A    between atoms: _466  and  _469
REMARK  190  A    between atoms: _469  and  _470
REMARK  191  A    between atoms: _470  and  _471
REMARK  192  A    between atoms: _471  and  _472
REMARK  193  A    between atoms: _481  and  _483
REMARK  194  A    between atoms: _483  and  _484
REMARK  195  A    between atoms: _483  and  _486
REMARK  196  A    between atoms: _486  and  _487
REMARK  197  A    between atoms: _487  and  _488
REMARK  198  A    between atoms: _490  and  _492
REMARK  199  A    between atoms: _492  and  _493
REMARK  200  A    between atoms: _492  and  _495
REMARK  201  A    between atoms: _495  and  _496
REMARK  202  A    between atoms: _501  and  _502
REMARK  203  A    between atoms: _504  and  _506
REMARK  204  A    between atoms: _506  and  _507
REMARK  205  A    between atoms: _509  and  _511
REMARK  206  A    between atoms: _511  and  _512
REMARK  207  A    between atoms: _511  and  _514
REMARK  208  A    between atoms: _514  and  _515
REMARK  209  A    between atoms: _515  and  _869
REMARK  210  A    between atoms: _516  and  _518
REMARK  211  A    between atoms: _518  and  _519
REMARK  212  A    between atoms: _518  and  _521
REMARK  213  A    between atoms: _521  and  _522
REMARK  214  A    between atoms: _525  and  _527
REMARK  215  A    between atoms: _527  and  _528
REMARK  216  A    between atoms: _527  and  _530
REMARK  217  A    between atoms: _530  and  _531
REMARK  218  A    between atoms: _531  and  _532
REMARK  219  A    between atoms: _537  and  _539
REMARK  220  A    between atoms: _539  and  _540
REMARK  221  A    between atoms: _539  and  _542
REMARK  222  A    between atoms: _542  and  _543
REMARK  223  A    between atoms: _545  and  _547
REMARK  224  A    between atoms: _547  and  _548
REMARK  225  A    between atoms: _551  and  _553
REMARK  226  A    between atoms: _553  and  _554
REMARK  227  A    between atoms: _553  and  _556
REMARK  228  A    between atoms: _556  and  _557
REMARK  229  A    between atoms: _562  and  _563
REMARK  230  A    between atoms: _565  and  _567
REMARK  231  A    between atoms: _567  and  _568
REMARK  232  A    between atoms: _567  and  _570
REMARK  233  A    between atoms: _570  and  _571
REMARK  234  A    between atoms: _576  and  _577
REMARK  235  A    between atoms: _579  and  _581
REMARK  236  A    between atoms: _581  and  _582
REMARK  237  A    between atoms: _581  and  _584
REMARK  238  A    between atoms: _584  and  _585
REMARK  239  A    between atoms: _588  and  _590
REMARK  240  A    between atoms: _590  and  _591
REMARK  241  A    between atoms: _594  and  _596
REMARK  242  A    between atoms: _596  and  _597
REMARK  243  A    between atoms: _596  and  _599
REMARK  244  A    between atoms: _599  and  _600
REMARK  245  A    between atoms: _610  and  _612
REMARK  246  A    between atoms: _612  and  _613
REMARK  247  A    between atoms: _616  and  _618
REMARK  248  A    between atoms: _618  and  _619
REMARK  249  A    between atoms: _622  and  _624
REMARK  250  A    between atoms: _624  and  _625
REMARK  251  A    between atoms: _624  and  _627
REMARK  252  A    between atoms: _627  and  _628
REMARK  253  A    between atoms: _628  and  _629
REMARK  254  A    between atoms: _634  and  _636
REMARK  255  A    between atoms: _636  and  _637
REMARK  256  A    between atoms: _636  and  _639
REMARK  257  A    between atoms: _639  and  _640
REMARK  258  A    between atoms: _643  and  _645
REMARK  259  A    between atoms: _645  and  _646
REMARK  260  A    between atoms: _645  and  _648
REMARK  261  A    between atoms: _648  and  _649
REMARK  262  A    between atoms: _652  and  _654
REMARK  263  A    between atoms: _654  and  _655
REMARK  264  A    between atoms: _654  and  _657
REMARK  265  A    between atoms: _657  and  _658
REMARK  266  A    between atoms: _658  and  _659
REMARK  267  A    between atoms: _664  and  _666
REMARK  268  A    between atoms: _666  and  _667
REMARK  269  A    between atoms: _666  and  _669
REMARK  270  A    between atoms: _669  and  _670
REMARK  271  A    between atoms: _670  and  _671
REMARK  272  A    between atoms: _671  and  _672
REMARK  273  A    between atoms: _681  and  _683
REMARK  274  A    between atoms: _683  and  _684
REMARK  275  A    between atoms: _683  and  _686
REMARK  276  A    between atoms: _686  and  _687
REMARK  277  A    between atoms: _687  and  _688
REMARK  278  A    between atoms: _688  and  _689
REMARK  279  A    between atoms: _689  and  _690
REMARK  280  A    between atoms: _694  and  _696
REMARK  281  A    between atoms: _696  and  _697
REMARK  282  A    between atoms: _696  and  _699
REMARK  283  A    between atoms: _699  and  _700
REMARK  284  A    between atoms: _710  and  _712
REMARK  285  A    between atoms: _712  and  _713
REMARK  286  A    between atoms: _712  and  _715
REMARK  287  A    between atoms: _715  and  _716
REMARK  288  A    between atoms: _716  and  _717
REMARK  289  A    between atoms: _720  and  _722
REMARK  290  A    between atoms: _722  and  _723
REMARK  291  A    between atoms: _726  and  _728
REMARK  292  A    between atoms: _728  and  _729
REMARK  293  A    between atoms: _732  and  _734
REMARK  294  A    between atoms: _734  and  _735
REMARK  295  A    between atoms: _734  and  _737
REMARK  296  A    between atoms: _737  and  _738
REMARK  297  A    between atoms: _738  and  _739
REMARK  298  A    between atoms: _739  and  _740
REMARK  299  A    between atoms: _749  and  _751
REMARK  300  A    between atoms: _751  and  _752
REMARK  301  A    between atoms: _751  and  _754
REMARK  302  A    between atoms: _754  and  _755
REMARK  303  A    between atoms: _755  and  _756
REMARK  304  A    between atoms: _759  and  _761
REMARK  305  A    between atoms: _761  and  _762
REMARK  306  A    between atoms: _765  and  _767
REMARK  307  A    between atoms: _767  and  _768
REMARK  308  A    between atoms: _767  and  _770
REMARK  309  A    between atoms: _770  and  _771
REMARK  310  A    between atoms: _771  and  _772
REMARK  311  A    between atoms: _775  and  _777
REMARK  312  A    between atoms: _777  and  _778
REMARK  313  A    between atoms: _777  and  _780
REMARK  314  A    between atoms: _780  and  _781
REMARK  315  A    between atoms: _781  and  _782
REMARK  316  A    between atoms: _787  and  _789
REMARK  317  A    between atoms: _789  and  _790
REMARK  318  A    between atoms: _789  and  _792
REMARK  319  A    between atoms: _792  and  _793
REMARK  320  A    between atoms: _803  and  _805
REMARK  321  A    between atoms: _805  and  _806
REMARK  322  A    between atoms: _805  and  _808
REMARK  323  A    between atoms: _808  and  _809
REMARK  324  A    between atoms: _809  and  _810
REMARK  325  A    between atoms: _810  and  _811
REMARK  326  A    between atoms: _820  and  _822
REMARK  327  A    between atoms: _822  and  _823
REMARK  328  A    between atoms: _826  and  _828
REMARK  329  A    between atoms: _828  and  _829
REMARK  330  A    between atoms: _828  and  _831
REMARK  331  A    between atoms: _831  and  _832
REMARK  332  A    between atoms: _837  and  _838
REMARK  333  A    between atoms: _840  and  _842
REMARK  334  A    between atoms: _842  and  _843
REMARK  335  A    between atoms: _842  and  _845
REMARK  336  A    between atoms: _845  and  _846
REMARK  337  A    between atoms: _849  and  _851
REMARK  338  A    between atoms: _851  and  _852
REMARK  339  A    between atoms: _854  and  _856
REMARK  340  A    between atoms: _856  and  _857
REMARK  341  A    between atoms: _856  and  _859
REMARK  342  A    between atoms: _859  and  _860
REMARK  343  A    between atoms: _863  and  _865
REMARK  344  A    between atoms: _865  and  _866
REMARK  345  A    between atoms: _865  and  _868
REMARK  346  A    between atoms: _868  and  _869
REMARK  347  A    between atoms: _870  and  _872
REMARK  348  A    between atoms: _872  and  _873
REMARK  349  A    between atoms: _872  and  _875
REMARK  350  A    between atoms: _878  and  _880
REMARK  351  A    between atoms: _880  and  _881
REMARK  352  A    between atoms: _880  and  _883
REMARK  353  A    between atoms: _883  and  _884
REMARK  354  A    between atoms: _884  and  _885
REMARK  355  A    between atoms: _888  and  _890
REMARK  356  A    between atoms: _890  and  _891
REMARK  357  A    between atoms: _890  and  _893
REMARK  358  A    between atoms: _893  and  _894
REMARK  359  A    between atoms: _904  and  _906
REMARK  360  A    between atoms: _906  and  _907
REMARK  361  A    between atoms: _906  and  _909
REMARK  362  A    between atoms: _909  and  _910
REMARK  363  A    between atoms: _913  and  _915
REMARK  364  A    between atoms: _915  and  _916
REMARK  365  A    between atoms: _915  and  _918
REMARK  366  A    between atoms: _918  and  _919
REMARK  367  A    between atoms: _919  and  _920
REMARK  368  A    between atoms: _920  and  _921
REMARK  369  A    between atoms: _930  and  _932
REMARK  370  A    between atoms: _932  and  _933
REMARK  371  A    between atoms: _932  and  _935
REMARK  372  A    between atoms: _935  and  _936
REMARK  373  A    between atoms: _941  and  _942
REMARK  374  A    between atoms: _944  and  _946
REMARK  375  A    between atoms: _946  and  _947
REMARK  376  A    between atoms: _946  and  _949
REMARK  377  A    between atoms: _949  and  _950
REMARK                            x       y       z     vdW  Elec       q    Type
REMARK                         _______ _______ _______ _____ _____    ______ ____
ROOT
ATOM      1  CA  TYR A   3      16.462  28.254  28.919  0.00  0.00    +0.153 C 
ENDROOT
BRANCH   1   3
ATOM      2  C   ARG A   2      14.650  26.790  28.224  0.00  0.00    +0.241 C 
ATOM      3  N   TYR A   3      15.892  26.949  28.664  0.00  0.00    -0.297 N 
ATOM      4  H   TYR A   3      16.476  26.105  28.831  0.00  0.00    +0.150 HD
ATOM      5  O   ARG A   2      13.774  27.689  28.213  0.00  0.00    -0.273 OA
BRANCH   2   6
ATOM      6  CA  ARG A   2      14.321  25.411  27.710  0.00  0.00    +0.149 C 
BRANCH   6   9
ATOM      7  C   MET A   1      12.743  23.765  28.553  0.00  0.00    +0.238 C 
ATOM      8  O   MET A   1      13.594  22.862  28.540  0.00  0.00    -0.274 OA
ATOM      9  N   ARG A   2      12.995  25.002  28.162  0.00  0.00    -0.297 N 
ATOM     10  H   ARG A   2      12.227  25.703  28.177  0.00  0.00    +0.150 HD
BRANCH   7  11
ATOM     11  CA  MET A   1      11.320  23.464  29.009  0.00  0.00    +0.146 C 
BRANCH  11  12
ATOM     12  N   MET A   1      10.945  22.176  28.417  0.00  0.00    -0.238 NA
ATOM     13  H   MET A   1      11.499  21.326  28.646  0.00  0.00    +0.142 HD
ENDBRANCH  11  12
BRANCH  11  14
ATOM     14  CB  MET A   1      11.242  23.416  30.539  0.00  0.00    +0.038 C 
BRANCH  14  15
ATOM     15  CG  MET A   1      11.710  24.726  31.187  0.00  0.00    +0.060 C 
BRANCH  15  16
ATOM     16  SD  MET A   1      11.169  24.878  32.905  0.00  0.00    -0.139 S 
ATOM     17  CE  MET A   1      12.275  23.753  33.731  0.00  0.00    +0.069 C 
ENDBRANCH  15  16
ENDBRANCH  14  15
ENDBRANCH  11  14
ENDBRANCH   7  11
ENDBRANCH   6   9
BRANCH   6  18
ATOM     18  CB  ARG A   2      14.363  25.484  26.184  0.00  0.00    +0.033 C 
BRANCH  18  19
ATOM     19  CG  ARG A   2      14.400  24.173  25.562  0.00  0.00    +0.045 C 
BRANCH  19  20
ATOM     20  CD  ARG A   2      15.755  23.427  25.624  0.00  0.00    +0.174 C 
BRANCH  20  21
ATOM     21  NE  ARG A   2      15.558  22.350  24.674  0.00  0.00    -0.265 N 
ATOM     22  CZ  ARG A   2      14.834  21.245  24.921  0.00  0.00    +0.342 C 
ATOM     23  NH2 ARG A   2      14.282  21.014  26.126  0.00  0.00    -0.292 N 
ATOM     24 HH21 ARG A   2      14.410  21.700  26.897  0.00  0.00    +0.255 HD
ATOM     25 HH22 ARG A   2      13.727  20.149  26.287  0.00  0.00    +0.255 HD
ATOM     26  NH1 ARG A   2      14.673  20.350  23.950  0.00  0.00    -0.292 N 
ATOM     27 HH11 ARG A   2      14.116  19.489  24.123  0.00  0.00    +0.255 HD
ATOM     28 HH12 ARG A   2      15.104  20.511  23.017  0.00  0.00    +0.255 HD
ATOM     29  HE  ARG A   2      16.006  22.438  23.740  0.00  0.00    +0.259 HD
ENDBRANCH  20  21
ENDBRANCH  19  20
ENDBRANCH  18  19
ENDBRANCH   6  18
ENDBRANCH   2   6
ENDBRANCH   1   3
BRANCH   1  30
ATOM     30  C   TYR A   3      17.508  28.580  27.868  0.00  0.00    +0.241 C 
ATOM     31  N   PHE A   4      17.534  29.845  27.455  0.00  0.00    -0.297 N 
ATOM     32  H   PHE A   4      16.861  30.513  27.882  0.00  0.00    +0.150 HD
ATOM     33  O   TYR A   3      18.260  27.705  27.439  0.00  0.00    -0.273 OA
BRANCH  31  34
ATOM     34  CA  PHE A   4      18.444  30.345  26.446  0.00  0.00    +0.153 C 
BRANCH  34  35
ATOM     35  C   PHE A   4      19.226  31.501  27.076  0.00  0.00    +0.241 C 
ATOM     36  O   PHE A   4      18.616  32.504  27.514  0.00  0.00    -0.273 OA
ATOM     37  N   TYR A   5      20.538  31.322  27.165  0.00  0.00    -0.298 N 
ATOM     38  H   TYR A   5      20.936  30.407  26.874  0.00  0.00    +0.150 HD
BRANCH  37  39
ATOM     39  CA  TYR A   5      21.449  32.359  27.656  0.00  0.00    +0.141 C 
BRANCH  39  40
ATOM     40  C   TYR A   5      22.238  32.934  26.505  0.00  0.00    +0.227 C 
ATOM     41  O   TYR A   5      22.791  32.205  25.678  0.00  0.00    -0.286 OA
ENDBRANCH  39  40
BRANCH  39  42
ATOM     42  CB  TYR A   5      22.475  31.806  28.649  0.00  0.00    +0.054 C 
BRANCH  42  43
ATOM     43  CG  TYR A   5      21.950  31.219  29.955  0.00  0.00    -0.020 A 
ATOM     44  CD2 TYR A   5      22.851  30.632  30.843  0.00  0.00    -0.001 A 
ATOM     45  CE2 TYR A   5      22.427  30.107  32.065  0.00  0.00    +0.036 A 
ATOM     46  CZ  TYR A   5      21.082  30.208  32.404  0.00  0.00    +0.134 A 
ATOM     47  CE1 TYR A   5      20.165  30.773  31.541  0.00  0.00    +0.036 A 
ATOM     48  CD1 TYR A   5      20.587  31.303  30.337  0.00  0.00    -0.001 A 
BRANCH  46  49
ATOM     49  OH  TYR A   5      20.637  29.678  33.581  0.00  0.00    -0.506 OA
ATOM     50  HH  TYR A   5      20.817  28.704  33.592  0.00  0.00    +0.292 HD
ENDBRANCH  46  49
ENDBRANCH  42  43
ENDBRANCH  39  42
ENDBRANCH  37  39
ENDBRANCH  34  35
BRANCH  34  51
ATOM     51  CB  PHE A   4      17.623  30.869  25.274  0.00  0.00    +0.055 C 
BRANCH  51  52
ATOM     52  CG  PHE A   4      16.841  29.801  24.558  0.00  0.00    -0.020 A 
ATOM     53  CD2 PHE A   4      15.597  29.403  25.023  0.00  0.00    -0.004 A 
ATOM     54  CE2 PHE A   4      14.867  28.395  24.366  0.00  0.00    -0.000 A 
ATOM     55  CZ  PHE A   4      15.370  27.806  23.222  0.00  0.00    -0.000 A 
ATOM     56  CE1 PHE A   4      16.573  28.237  22.706  0.00  0.00    -0.000 A 
ATOM     57  CD1 PHE A   4      17.326  29.227  23.384  0.00  0.00    -0.004 A 
ENDBRANCH  51  52
ENDBRANCH  34  51
ENDBRANCH  31  34
ENDBRANCH   1  30
BRANCH   1  58
ATOM     58  CB  TYR A   3      17.062  28.361  30.316  0.00  0.00    +0.055 C 
BRANCH  58  59
ATOM     59  CG  TYR A   3      16.022  28.440  31.401  0.00  0.00    -0.020 A 
ATOM     60  CD2 TYR A   3      15.498  27.260  31.978  0.00  0.00    -0.001 A 
ATOM     61  CE2 TYR A   3      14.514  27.314  32.968  0.00  0.00    +0.036 A 
ATOM     62  CZ  TYR A   3      14.040  28.572  33.362  0.00  0.00    +0.134 A 
ATOM     63  CE1 TYR A   3      14.515  29.734  32.778  0.00  0.00    +0.036 A 
ATOM     64  CD1 TYR A   3      15.488  29.681  31.800  0.00  0.00    -0.001 A 
BRANCH  62  65
ATOM     65  OH  TYR A   3      13.070  28.670  34.361  0.00  0.00    -0.506 OA
ATOM     66  HH  TYR A   3      12.851  29.623  34.514  0.00  0.00    +0.292 HD
ENDBRANCH  62  65
ENDBRANCH  58  59
ENDBRANCH   1  58
TORSDOF 25
REMARK  Name = ../refined-set-2016/1xr9/1xr9_pocket.pdb
REMARK  377 active torsions:
REMARK  status: ('A' for Active; 'I' for Inactive)
REMARK    1  A    between atoms: _1  and  _3
REMARK    2  A    between atoms: _3  and  _4
REMARK    3  A    between atoms: _3  and  _6
REMARK    4  A    between atoms: _6  and  _7
REMARK    5  A    between atoms: _7  and  _8
REMARK    6  A    between atoms: _10  and  _12
REMARK    7  A    between atoms: _12  and  _13
REMARK    8  A    between atoms: _12  and  _15
REMARK    9  A    between atoms: _15  and  _16
REMARK   10  A    between atoms: _16  and  _17
REMARK   11  A    between atoms: _17  and  _18
REMARK   12  A    between atoms: _27  and  _29
REMARK   13  A    between atoms: _29  and  _30
REMARK   14  A    between atoms: _29  and  _32
REMARK   15  A    between atoms: _32  and  _33
REMARK   16  A    between atoms: _38  and  _39
REMARK   17  A    between atoms: _41  and  _43
REMARK   18  A    between atoms: _43  and  _44
REMARK   19  A    between atoms: _43  and  _46
REMARK   20  A    between atoms: _46  and  _47
REMARK   21  A    between atoms: _53  and  _55
REMARK   22  A    between atoms: _55  and  _56
REMARK   23  A    between atoms: _55  and  _58
REMARK   24  A    between atoms: _58  and  _59
REMARK   25  A    between atoms: _64  and  _65
REMARK   26  A    between atoms: _67  and  _69
REMARK   27  A    between atoms: _69  and  _70
REMARK   28  A    between atoms: _69  and  _72
REMARK   29  A    between atoms: _72  and  _73
REMARK   30  A    between atoms: _79  and  _81
REMARK   31  A    between atoms: _81  and  _82
REMARK   32  A    between atoms: _85  and  _87
REMARK   33  A    between atoms: _87  and  _88
REMARK   34  A    between atoms: _87  and  _90
REMARK   35  A    between atoms: _93  and  _95
REMARK   36  A    between atoms: _95  and  _96
REMARK   37  A    between atoms: _98  and  _100
REMARK   38  A    between atoms: _100  and  _101
REMARK   39  A    between atoms: _100  and  _103
REMARK   40  A    between atoms: _106  and  _108
REMARK   41  A    between atoms: _108  and  _109
REMARK   42  A    between atoms: _108  and  _111
REMARK   43  A    between atoms: _111  and  _112
REMARK   44  A    between atoms: _118  and  _120
REMARK   45  A    between atoms: _120  and  _121
REMARK   46  A    between atoms: _120  and  _123
REMARK   47  A    between atoms: _126  and  _128
REMARK   48  A    between atoms: _128  and  _129
REMARK   49  A    between atoms: _128  and  _131
REMARK   50  A    between atoms: _131  and  _132
REMARK   51  A    between atoms: _138  and  _140
REMARK   52  A    between atoms: _140  and  _141
REMARK   53  A    between atoms: _140  and  _143
REMARK   54  A    between atoms: _143  and  _144
REMARK   55  A    between atoms: _144  and  _145
REMARK   56  A    between atoms: _147  and  _149
REMARK   57  A    between atoms: _149  and  _150
REMARK   58  A    between atoms: _149  and  _152
REMARK   59  A    between atoms: _152  and  _153
REMARK   60  A    between atoms: _156  and  _158
REMARK   61  A    between atoms: _158  and  _159
REMARK   62  A    between atoms: _158  and  _161
REMARK   63  A    between atoms: _161  and  _162
REMARK   64  A    between atoms: _162  and  _163
REMARK   65  A    between atoms: _166  and  _168
REMARK   66  A    between atoms: _168  and  _169
REMARK   67  A    between atoms: _168  and  _171
REMARK   68  A    between atoms: _171  and  _172
REMARK   69  A    between atoms: _172  and  _173
REMARK   70  A    between atoms: _176  and  _178
REMARK   71  A    between atoms: _178  and  _179
REMARK   72  A    between atoms: _178  and  _181
REMARK   73  A    between atoms: _181  and  _182
REMARK   74  A    between atoms: _187  and  _188
REMARK   75  A    between atoms: _190  and  _192
REMARK   76  A    between atoms: _192  and  _193
REMARK   77  A    between atoms: _192  and  _195
REMARK   78  A    between atoms: _195  and  _196
REMARK   79  A    between atoms: _206  and  _208
REMARK   80  A    between atoms: _208  and  _209
REMARK   81  A    between atoms: _208  and  _211
REMARK   82  A    between atoms: _211  and  _212
REMARK   83  A    between atoms: _215  and  _217
REMARK   84  A    between atoms: _217  and  _218
REMARK   85  A    between atoms: _217  and  _220
REMARK   86  A    between atoms: _220  and  _221
REMARK   87  A    between atoms: _221  and  _222
REMARK   88  A    between atoms: _222  and  _223
REMARK   89  A    between atoms: _232  and  _234
REMARK   90  A    between atoms: _234  and  _235
REMARK   91  A    between atoms: _234  and  _237
REMARK   92  A    between atoms: _237  and  _238
REMARK   93  A    between atoms: _238  and  _239
REMARK   94  A    between atoms: _242  and  _244
REMARK   95  A    between atoms: _244  and  _245
REMARK   96  A    between atoms: _244  and  _247
REMARK   97  A    between atoms: _247  and  _248
REMARK   98  A    between atoms: _251  and  _253
REMARK   99  A    between atoms: _253  and  _254
REMARK  100  A    between atoms: _253  and  _256
REMARK  101  A    between atoms: _256  and  _257
REMARK  102  A    between atoms: _257  and  _258
REMARK  103  A    between atoms: _263  and  _265
REMARK  104  A    between atoms: _265  and  _266
REMARK  105  A    between atoms: _265  and  _268
REMARK  106  A    between atoms: _268  and  _269
REMARK  107  A    between atoms: _272  and  _274
REMARK  108  A    between atoms: _274  and  _275
REMARK  109  A    between atoms: _274  and  _277
REMARK  110  A    between atoms: _277  and  _278
REMARK  111  A    between atoms: _280  and  _282
REMARK  112  A    between atoms: _282  and  _283
REMARK  113  A    between atoms: _282  and  _285
REMARK  114  A    between atoms: _285  and  _286
REMARK  115  A    between atoms: _286  and  _287
REMARK  116  A    between atoms: _287  and  _288
REMARK  117  A    between atoms: _288  and  _289
REMARK  118  A    between atoms: _293  and  _295
REMARK  119  A    between atoms: _295  and  _296
REMARK  120  A    between atoms: _295  and  _298
REMARK  121  A    between atoms: _298  and  _299
REMARK  122  A    between atoms: _302  and  _304
REMARK  123  A    between atoms: _304  and  _305
REMARK  124  A    between atoms: _304  and  _307
REMARK  125  A    between atoms: _307  and  _308
REMARK  126  A    between atoms: _313  and  _315
REMARK  127  A    between atoms: _315  and  _316
REMARK  128  A    between atoms: _315  and  _318
REMARK  129  A    between atoms: _318  and  _319
REMARK  130  A    between atoms: _319  and  _320
REMARK  131  A    between atoms: _325  and  _327
REMARK  132  A    between atoms: _327  and  _328
REMARK  133  A    between atoms: _327  and  _330
REMARK  134  A    between atoms: _330  and  _331
REMARK  135  A    between atoms: _334  and  _336
REMARK  136  A    between atoms: _336  and  _337
REMARK  137  A    between atoms: _336  and  _339
REMARK  138  A    between atoms: _339  and  _340
REMARK  139  A    between atoms: _345  and  _346
REMARK  140  A    between atoms: _348  and  _350
REMARK  141  A    between atoms: _350  and  _351
REMARK  142  A    between atoms: _350  and  _353
REMARK  143  A    between atoms: _353  and  _354
REMARK  144  A    between atoms: _354  and  _355
REMARK  145  A    between atoms: _355  and  _356
REMARK  146  A    between atoms: _365  and  _367
REMARK  147  A    between atoms: _367  and  _368
REMARK  148  A    between atoms: _367  and  _370
REMARK  149  A    between atoms: _370  and  _371
REMARK  150  A    between atoms: _371  and  _372
REMARK  151  A    between atoms: _375  and  _377
REMARK  152  A    between atoms: _377  and  _378
REMARK  153  A    between atoms: _377  and  _380
REMARK  154  A    between atoms: _380  and  _381
REMARK  155  A    between atoms: _383  and  _385
REMARK  156  A    between atoms: _385  and  _386
REMARK  157  A    between atoms: _385  and  _388
REMARK  158  A    between atoms: _388  and  _389
REMARK  159  A    between atoms: _392  and  _394
REMARK  160  A    between atoms: _394  and  _395
REMARK  161  A    between atoms: _394  and  _397
REMARK  162  A    between atoms: _397  and  _398
REMARK  163  A    between atoms: _398  and  _399
REMARK  164  A    between atoms: _399  and  _400
REMARK  165  A    between atoms: _409  and  _411
REMARK  166  A    between atoms: _411  and  _412
REMARK  167  A    between atoms: _411  and  _414
REMARK  168  A    between atoms: _414  and  _415
REMARK  169  A    between atoms: _420  and  _422
REMARK  170  A    between atoms: _422  and  _423
REMARK  171  A    between atoms: _422  and  _425
REMARK  172  A    between atoms: _425  and  _426
REMARK  173  A    between atoms: _429  and  _431
REMARK  174  A    between atoms: _431  and  _432
REMARK  175  A    between atoms: _431  and  _434
REMARK  176  A    between atoms: _434  and  _435
REMARK  177  A    between atoms: _440  and  _441
REMARK  178  A    between atoms: _443  and  _445
REMARK  179  A    between atoms: _445  and  _446
REMARK  180  A    between atoms: _445  and  _448
REMARK  181  A    between atoms: _448  and  _449
REMARK  182  A    between atoms: _452  and  _454
REMARK  183  A    between atoms: _454  and  _455
REMARK  184  A    between atoms: _454  and  _457
REMARK  185  A    between atoms: _457  and  _458
REMARK  186  A    between atoms: _458  and  _459
REMARK  187  A    between atoms: _464  and  _466
REMARK  188  A    between atoms: _466  and  _467
REMARK  189  A    between atoms: _466  and  _469
REMARK  190  A    between atoms: _469  and  _470
REMARK  191  A    between atoms: _470  and  _471
REMARK  192  A    between atoms: _471  and  _472
REMARK  193  A    between atoms: _481  and  _483
REMARK  194  A    between atoms: _483  and  _484
REMARK  195  A    between atoms: _483  and  _486
REMARK  196  A    between atoms: _486  and  _487
REMARK  197  A    between atoms: _487  and  _488
REMARK  198  A    between atoms: _490  and  _492
REMARK  199  A    between atoms: _492  and  _493
REMARK  200  A    between atoms: _492  and  _495
REMARK  201  A    between atoms: _495  and  _496
REMARK  202  A    between atoms: _501  and  _502
REMARK  203  A    between atoms: _504  and  _506
REMARK  204  A    between atoms: _506  and  _507
REMARK  205  A    between atoms: _509  and  _511
REMARK  206  A    between atoms: _511  and  _512
REMARK  207  A    between atoms: _511  and  _514
REMARK  208  A    between atoms: _514  and  _515
REMARK  209  A    between atoms: _515  and  _869
REMARK  210  A    between atoms: _516  and  _518
REMARK  211  A    between atoms: _518  and  _519
REMARK  212  A    between atoms: _518  and  _521
REMARK  213  A    between atoms: _521  and  _522
REMARK  214  A    between atoms: _525  and  _527
REMARK  215  A    between atoms: _527  and  _528
REMARK  216  A    between atoms: _527  and  _530
REMARK  217  A    between atoms: _530  and  _531
REMARK  218  A    between atoms: _531  and  _532
REMARK  219  A    between atoms: _537  and  _539
REMARK  220  A    between atoms: _539  and  _540
REMARK  221  A    between atoms: _539  and  _542
REMARK  222  A    between atoms: _542  and  _543
REMARK  223  A    between atoms: _545  and  _547
REMARK  224  A    between atoms: _547  and  _548
REMARK  225  A    between atoms: _551  and  _553
REMARK  226  A    between atoms: _553  and  _554
REMARK  227  A    between atoms: _553  and  _556
REMARK  228  A    between atoms: _556  and  _557
REMARK  229  A    between atoms: _562  and  _563
REMARK  230  A    between atoms: _565  and  _567
REMARK  231  A    between atoms: _567  and  _568
REMARK  232  A    between atoms: _567  and  _570
REMARK  233  A    between atoms: _570  and  _571
REMARK  234  A    between atoms: _576  and  _577
REMARK  235  A    between atoms: _579  and  _581
REMARK  236  A    between atoms: _581  and  _582
REMARK  237  A    between atoms: _581  and  _584
REMARK  238  A    between atoms: _584  and  _585
REMARK  239  A    between atoms: _588  and  _590
REMARK  240  A    between atoms: _590  and  _591
REMARK  241  A    between atoms: _594  and  _596
REMARK  242  A    between atoms: _596  and  _597
REMARK  243  A    between atoms: _596  and  _599
REMARK  244  A    between atoms: _599  and  _600
REMARK  245  A    between atoms: _610  and  _612
REMARK  246  A    between atoms: _612  and  _613
REMARK  247  A    between atoms: _616  and  _618
REMARK  248  A    between atoms: _618  and  _619
REMARK  249  A    between atoms: _622  and  _624
REMARK  250  A    between atoms: _624  and  _625
REMARK  251  A    between atoms: _624  and  _627
REMARK  252  A    between atoms: _627  and  _628
REMARK  253  A    between atoms: _628  and  _629
REMARK  254  A    between atoms: _634  and  _636
REMARK  255  A    between atoms: _636  and  _637
REMARK  256  A    between atoms: _636  and  _639
REMARK  257  A    between atoms: _639  and  _640
REMARK  258  A    between atoms: _643  and  _645
REMARK  259  A    between atoms: _645  and  _646
REMARK  260  A    between atoms: _645  and  _648
REMARK  261  A    between atoms: _648  and  _649
REMARK  262  A    between atoms: _652  and  _654
REMARK  263  A    between atoms: _654  and  _655
REMARK  264  A    between atoms: _654  and  _657
REMARK  265  A    between atoms: _657  and  _658
REMARK  266  A    between atoms: _658  and  _659
REMARK  267  A    between atoms: _664  and  _666
REMARK  268  A    between atoms: _666  and  _667
REMARK  269  A    between atoms: _666  and  _669
REMARK  270  A    between atoms: _669  and  _670
REMARK  271  A    between atoms: _670  and  _671
REMARK  272  A    between atoms: _671  and  _672
REMARK  273  A    between atoms: _681  and  _683
REMARK  274  A    between atoms: _683  and  _684
REMARK  275  A    between atoms: _683  and  _686
REMARK  276  A    between atoms: _686  and  _687
REMARK  277  A    between atoms: _687  and  _688
REMARK  278  A    between atoms: _688  and  _689
REMARK  279  A    between atoms: _689  and  _690
REMARK  280  A    between atoms: _694  and  _696
REMARK  281  A    between atoms: _696  and  _697
REMARK  282  A    between atoms: _696  and  _699
REMARK  283  A    between atoms: _699  and  _700
REMARK  284  A    between atoms: _710  and  _712
REMARK  285  A    between atoms: _712  and  _713
REMARK  286  A    between atoms: _712  and  _715
REMARK  287  A    between atoms: _715  and  _716
REMARK  288  A    between atoms: _716  and  _717
REMARK  289  A    between atoms: _720  and  _722
REMARK  290  A    between atoms: _722  and  _723
REMARK  291  A    between atoms: _726  and  _728
REMARK  292  A    between atoms: _728  and  _729
REMARK  293  A    between atoms: _732  and  _734
REMARK  294  A    between atoms: _734  and  _735
REMARK  295  A    between atoms: _734  and  _737
REMARK  296  A    between atoms: _737  and  _738
REMARK  297  A    between atoms: _738  and  _739
REMARK  298  A    between atoms: _739  and  _740
REMARK  299  A    between atoms: _749  and  _751
REMARK  300  A    between atoms: _751  and  _752
REMARK  301  A    between atoms: _751  and  _754
REMARK  302  A    between atoms: _754  and  _755
REMARK  303  A    between atoms: _755  and  _756
REMARK  304  A    between atoms: _759  and  _761
REMARK  305  A    between atoms: _761  and  _762
REMARK  306  A    between atoms: _765  and  _767
REMARK  307  A    between atoms: _767  and  _768
REMARK  308  A    between atoms: _767  and  _770
REMARK  309  A    between atoms: _770  and  _771
REMARK  310  A    between atoms: _771  and  _772
REMARK  311  A    between atoms: _775  and  _777
REMARK  312  A    between atoms: _777  and  _778
REMARK  313  A    between atoms: _777  and  _780
REMARK  314  A    between atoms: _780  and  _781
REMARK  315  A    between atoms: _781  and  _782
REMARK  316  A    between atoms: _787  and  _789
REMARK  317  A    between atoms: _789  and  _790
REMARK  318  A    between atoms: _789  and  _792
REMARK  319  A    between atoms: _792  and  _793
REMARK  320  A    between atoms: _803  and  _805
REMARK  321  A    between atoms: _805  and  _806
REMARK  322  A    between atoms: _805  and  _808
REMARK  323  A    between atoms: _808  and  _809
REMARK  324  A    between atoms: _809  and  _810
REMARK  325  A    between atoms: _810  and  _811
REMARK  326  A    between atoms: _820  and  _822
REMARK  327  A    between atoms: _822  and  _823
REMARK  328  A    between atoms: _826  and  _828
REMARK  329  A    between atoms: _828  and  _829
REMARK  330  A    between atoms: _828  and  _831
REMARK  331  A    between atoms: _831  and  _832
REMARK  332  A    between atoms: _837  and  _838
REMARK  333  A    between atoms: _840  and  _842
REMARK  334  A    between atoms: _842  and  _843
REMARK  335  A    between atoms: _842  and  _845
REMARK  336  A    between atoms: _845  and  _846
REMARK  337  A    between atoms: _849  and  _851
REMARK  338  A    between atoms: _851  and  _852
REMARK  339  A    between atoms: _854  and  _856
REMARK  340  A    between atoms: _856  and  _857
REMARK  341  A    between atoms: _856  and  _859
REMARK  342  A    between atoms: _859  and  _860
REMARK  343  A    between atoms: _863  and  _865
REMARK  344  A    between atoms: _865  and  _866
REMARK  345  A    between atoms: _865  and  _868
REMARK  346  A    between atoms: _868  and  _869
REMARK  347  A    between atoms: _870  and  _872
REMARK  348  A    between atoms: _872  and  _873
REMARK  349  A    between atoms: _872  and  _875
REMARK  350  A    between atoms: _878  and  _880
REMARK  351  A    between atoms: _880  and  _881
REMARK  352  A    between atoms: _880  and  _883
REMARK  353  A    between atoms: _883  and  _884
REMARK  354  A    between atoms: _884  and  _885
REMARK  355  A    between atoms: _888  and  _890
REMARK  356  A    between atoms: _890  and  _891
REMARK  357  A    between atoms: _890  and  _893
REMARK  358  A    between atoms: _893  and  _894
REMARK  359  A    between atoms: _904  and  _906
REMARK  360  A    between atoms: _906  and  _907
REMARK  361  A    between atoms: _906  and  _909
REMARK  362  A    between atoms: _909  and  _910
REMARK  363  A    between atoms: _913  and  _915
REMARK  364  A    between atoms: _915  and  _916
REMARK  365  A    between atoms: _915  and  _918
REMARK  366  A    between atoms: _918  and  _919
REMARK  367  A    between atoms: _919  and  _920
REMARK  368  A    between atoms: _920  and  _921
REMARK  369  A    between atoms: _930  and  _932
REMARK  370  A    between atoms: _932  and  _933
REMARK  371  A    between atoms: _932  and  _935
REMARK  372  A    between atoms: _935  and  _936
REMARK  373  A    between atoms: _941  and  _942
REMARK  374  A    between atoms: _944  and  _946
REMARK  375  A    between atoms: _946  and  _947
REMARK  376  A    between atoms: _946  and  _949
REMARK  377  A    between atoms: _949  and  _950
REMARK                            x       y       z     vdW  Elec       q    Type
REMARK                         _______ _______ _______ _____ _____    ______ ____
ROOT
ATOM      1  CB  PHE A   1      24.359  38.229  31.104  0.00  0.00    +0.051 C 
ENDROOT
BRANCH   1   2
ATOM      2  CG  PHE A   1      23.856  36.833  31.412  0.00  0.00    -0.020 A 
ATOM      3  CD2 PHE A   1      22.746  36.644  32.217  0.00  0.00    -0.004 A 
ATOM      4  CE2 PHE A   1      22.241  35.333  32.475  0.00  0.00    -0.000 A 
ATOM      5  CZ  PHE A   1      22.868  34.232  31.920  0.00  0.00    -0.000 A 
ATOM      6  CE1 PHE A   1      23.986  34.406  31.117  0.00  0.00    -0.000 A 
ATOM      7  CD1 PHE A   1      24.474  35.707  30.835  0.00  0.00    -0.004 A 
ENDBRANCH   1   2
BRANCH   1   8
ATOM      8  CA  PHE A   1      23.843  38.775  29.761  0.00  0.00    +0.137 C 
BRANCH   8   9
ATOM      9  N   PHE A   1      24.309  40.141  29.536  0.00  0.00    -0.239 NA
ATOM     10  H   PHE A   1      23.994  40.896  30.178  0.00  0.00    +0.142 HD
ENDBRANCH   8   9
BRANCH   8  11
ATOM     11  C   PHE A   1      22.320  38.803  29.724  0.00  0.00    +0.224 C 
ATOM     12  O   PHE A   1      21.707  39.550  30.473  0.00  0.00    -0.287 OA
ENDBRANCH   8  11
ENDBRANCH   1   8
TORSDOF 4
REMARK  Name = ../refined-set-2016/1xr9/1xr9_pocket.pdb
REMARK  377 active torsions:
REMARK  status: ('A' for Active; 'I' for Inactive)
REMARK    1  A    between atoms: _1  and  _3
REMARK    2  A    between atoms: _3  and  _4
REMARK    3  A    between atoms: _3  and  _6
REMARK    4  A    between atoms: _6  and  _7
REMARK    5  A    between atoms: _7  and  _8
REMARK    6  A    between atoms: _10  and  _12
REMARK    7  A    between atoms: _12  and  _13
REMARK    8  A    between atoms: _12  and  _15
REMARK    9  A    between atoms: _15  and  _16
REMARK   10  A    between atoms: _16  and  _17
REMARK   11  A    between atoms: _17  and  _18
REMARK   12  A    between atoms: _27  and  _29
REMARK   13  A    between atoms: _29  and  _30
REMARK   14  A    between atoms: _29  and  _32
REMARK   15  A    between atoms: _32  and  _33
REMARK   16  A    between atoms: _38  and  _39
REMARK   17  A    between atoms: _41  and  _43
REMARK   18  A    between atoms: _43  and  _44
REMARK   19  A    between atoms: _43  and  _46
REMARK   20  A    between atoms: _46  and  _47
REMARK   21  A    between atoms: _53  and  _55
REMARK   22  A    between atoms: _55  and  _56
REMARK   23  A    between atoms: _55  and  _58
REMARK   24  A    between atoms: _58  and  _59
REMARK   25  A    between atoms: _64  and  _65
REMARK   26  A    between atoms: _67  and  _69
REMARK   27  A    between atoms: _69  and  _70
REMARK   28  A    between atoms: _69  and  _72
REMARK   29  A    between atoms: _72  and  _73
REMARK   30  A    between atoms: _79  and  _81
REMARK   31  A    between atoms: _81  and  _82
REMARK   32  A    between atoms: _85  and  _87
REMARK   33  A    between atoms: _87  and  _88
REMARK   34  A    between atoms: _87  and  _90
REMARK   35  A    between atoms: _93  and  _95
REMARK   36  A    between atoms: _95  and  _96
REMARK   37  A    between atoms: _98  and  _100
REMARK   38  A    between atoms: _100  and  _101
REMARK   39  A    between atoms: _100  and  _103
REMARK   40  A    between atoms: _106  and  _108
REMARK   41  A    between atoms: _108  and  _109
REMARK   42  A    between atoms: _108  and  _111
REMARK   43  A    between atoms: _111  and  _112
REMARK   44  A    between atoms: _118  and  _120
REMARK   45  A    between atoms: _120  and  _121
REMARK   46  A    between atoms: _120  and  _123
REMARK   47  A    between atoms: _126  and  _128
REMARK   48  A    between atoms: _128  and  _129
REMARK   49  A    between atoms: _128  and  _131
REMARK   50  A    between atoms: _131  and  _132
REMARK   51  A    between atoms: _138  and  _140
REMARK   52  A    between atoms: _140  and  _141
REMARK   53  A    between atoms: _140  and  _143
REMARK   54  A    between atoms: _143  and  _144
REMARK   55  A    between atoms: _144  and  _145
REMARK   56  A    between atoms: _147  and  _149
REMARK   57  A    between atoms: _149  and  _150
REMARK   58  A    between atoms: _149  and  _152
REMARK   59  A    between atoms: _152  and  _153
REMARK   60  A    between atoms: _156  and  _158
REMARK   61  A    between atoms: _158  and  _159
REMARK   62  A    between atoms: _158  and  _161
REMARK   63  A    between atoms: _161  and  _162
REMARK   64  A    between atoms: _162  and  _163
REMARK   65  A    between atoms: _166  and  _168
REMARK   66  A    between atoms: _168  and  _169
REMARK   67  A    between atoms: _168  and  _171
REMARK   68  A    between atoms: _171  and  _172
REMARK   69  A    between atoms: _172  and  _173
REMARK   70  A    between atoms: _176  and  _178
REMARK   71  A    between atoms: _178  and  _179
REMARK   72  A    between atoms: _178  and  _181
REMARK   73  A    between atoms: _181  and  _182
REMARK   74  A    between atoms: _187  and  _188
REMARK   75  A    between atoms: _190  and  _192
REMARK   76  A    between atoms: _192  and  _193
REMARK   77  A    between atoms: _192  and  _195
REMARK   78  A    between atoms: _195  and  _196
REMARK   79  A    between atoms: _206  and  _208
REMARK   80  A    between atoms: _208  and  _209
REMARK   81  A    between atoms: _208  and  _211
REMARK   82  A    between atoms: _211  and  _212
REMARK   83  A    between atoms: _215  and  _217
REMARK   84  A    between atoms: _217  and  _218
REMARK   85  A    between atoms: _217  and  _220
REMARK   86  A    between atoms: _220  and  _221
REMARK   87  A    between atoms: _221  and  _222
REMARK   88  A    between atoms: _222  and  _223
REMARK   89  A    between atoms: _232  and  _234
REMARK   90  A    between atoms: _234  and  _235
REMARK   91  A    between atoms: _234  and  _237
REMARK   92  A    between atoms: _237  and  _238
REMARK   93  A    between atoms: _238  and  _239
REMARK   94  A    between atoms: _242  and  _244
REMARK   95  A    between atoms: _244  and  _245
REMARK   96  A    between atoms: _244  and  _247
REMARK   97  A    between atoms: _247  and  _248
REMARK   98  A    between atoms: _251  and  _253
REMARK   99  A    between atoms: _253  and  _254
REMARK  100  A    between atoms: _253  and  _256
REMARK  101  A    between atoms: _256  and  _257
REMARK  102  A    between atoms: _257  and  _258
REMARK  103  A    between atoms: _263  and  _265
REMARK  104  A    between atoms: _265  and  _266
REMARK  105  A    between atoms: _265  and  _268
REMARK  106  A    between atoms: _268  and  _269
REMARK  107  A    between atoms: _272  and  _274
REMARK  108  A    between atoms: _274  and  _275
REMARK  109  A    between atoms: _274  and  _277
REMARK  110  A    between atoms: _277  and  _278
REMARK  111  A    between atoms: _280  and  _282
REMARK  112  A    between atoms: _282  and  _283
REMARK  113  A    between atoms: _282  and  _285
REMARK  114  A    between atoms: _285  and  _286
REMARK  115  A    between atoms: _286  and  _287
REMARK  116  A    between atoms: _287  and  _288
REMARK  117  A    between atoms: _288  and  _289
REMARK  118  A    between atoms: _293  and  _295
REMARK  119  A    between atoms: _295  and  _296
REMARK  120  A    between atoms: _295  and  _298
REMARK  121  A    between atoms: _298  and  _299
REMARK  122  A    between atoms: _302  and  _304
REMARK  123  A    between atoms: _304  and  _305
REMARK  124  A    between atoms: _304  and  _307
REMARK  125  A    between atoms: _307  and  _308
REMARK  126  A    between atoms: _313  and  _315
REMARK  127  A    between atoms: _315  and  _316
REMARK  128  A    between atoms: _315  and  _318
REMARK  129  A    between atoms: _318  and  _319
REMARK  130  A    between atoms: _319  and  _320
REMARK  131  A    between atoms: _325  and  _327
REMARK  132  A    between atoms: _327  and  _328
REMARK  133  A    between atoms: _327  and  _330
REMARK  134  A    between atoms: _330  and  _331
REMARK  135  A    between atoms: _334  and  _336
REMARK  136  A    between atoms: _336  and  _337
REMARK  137  A    between atoms: _336  and  _339
REMARK  138  A    between atoms: _339  and  _340
REMARK  139  A    between atoms: _345  and  _346
REMARK  140  A    between atoms: _348  and  _350
REMARK  141  A    between atoms: _350  and  _351
REMARK  142  A    between atoms: _350  and  _353
REMARK  143  A    between atoms: _353  and  _354
REMARK  144  A    between atoms: _354  and  _355
REMARK  145  A    between atoms: _355  and  _356
REMARK  146  A    between atoms: _365  and  _367
REMARK  147  A    between atoms: _367  and  _368
REMARK  148  A    between atoms: _367  and  _370
REMARK  149  A    between atoms: _370  and  _371
REMARK  150  A    between atoms: _371  and  _372
REMARK  151  A    between atoms: _375  and  _377
REMARK  152  A    between atoms: _377  and  _378
REMARK  153  A    between atoms: _377  and  _380
REMARK  154  A    between atoms: _380  and  _381
REMARK  155  A    between atoms: _383  and  _385
REMARK  156  A    between atoms: _385  and  _386
REMARK  157  A    between atoms: _385  and  _388
REMARK  158  A    between atoms: _388  and  _389
REMARK  159  A    between atoms: _392  and  _394
REMARK  160  A    between atoms: _394  and  _395
REMARK  161  A    between atoms: _394  and  _397
REMARK  162  A    between atoms: _397  and  _398
REMARK  163  A    between atoms: _398  and  _399
REMARK  164  A    between atoms: _399  and  _400
REMARK  165  A    between atoms: _409  and  _411
REMARK  166  A    between atoms: _411  and  _412
REMARK  167  A    between atoms: _411  and  _414
REMARK  168  A    between atoms: _414  and  _415
REMARK  169  A    between atoms: _420  and  _422
REMARK  170  A    between atoms: _422  and  _423
REMARK  171  A    between atoms: _422  and  _425
REMARK  172  A    between atoms: _425  and  _426
REMARK  173  A    between atoms: _429  and  _431
REMARK  174  A    between atoms: _431  and  _432
REMARK  175  A    between atoms: _431  and  _434
REMARK  176  A    between atoms: _434  and  _435
REMARK  177  A    between atoms: _440  and  _441
REMARK  178  A    between atoms: _443  and  _445
REMARK  179  A    between atoms: _445  and  _446
REMARK  180  A    between atoms: _445  and  _448
REMARK  181  A    between atoms: _448  and  _449
REMARK  182  A    between atoms: _452  and  _454
REMARK  183  A    between atoms: _454  and  _455
REMARK  184  A    between atoms: _454  and  _457
REMARK  185  A    between atoms: _457  and  _458
REMARK  186  A    between atoms: _458  and  _459
REMARK  187  A    between atoms: _464  and  _466
REMARK  188  A    between atoms: _466  and  _467
REMARK  189  A    between atoms: _466  and  _469
REMARK  190  A    between atoms: _469  and  _470
REMARK  191  A    between atoms: _470  and  _471
REMARK  192  A    between atoms: _471  and  _472
REMARK  193  A    between atoms: _481  and  _483
REMARK  194  A    between atoms: _483  and  _484
REMARK  195  A    between atoms: _483  and  _486
REMARK  196  A    between atoms: _486  and  _487
REMARK  197  A    between atoms: _487  and  _488
REMARK  198  A    between atoms: _490  and  _492
REMARK  199  A    between atoms: _492  and  _493
REMARK  200  A    between atoms: _492  and  _495
REMARK  201  A    between atoms: _495  and  _496
REMARK  202  A    between atoms: _501  and  _502
REMARK  203  A    between atoms: _504  and  _506
REMARK  204  A    between atoms: _506  and  _507
REMARK  205  A    between atoms: _509  and  _511
REMARK  206  A    between atoms: _511  and  _512
REMARK  207  A    between atoms: _511  and  _514
REMARK  208  A    between atoms: _514  and  _515
REMARK  209  A    between atoms: _515  and  _869
REMARK  210  A    between atoms: _516  and  _518
REMARK  211  A    between atoms: _518  and  _519
REMARK  212  A    between atoms: _518  and  _521
REMARK  213  A    between atoms: _521  and  _522
REMARK  214  A    between atoms: _525  and  _527
REMARK  215  A    between atoms: _527  and  _528
REMARK  216  A    between atoms: _527  and  _530
REMARK  217  A    between atoms: _530  and  _531
REMARK  218  A    between atoms: _531  and  _532
REMARK  219  A    between atoms: _537  and  _539
REMARK  220  A    between atoms: _539  and  _540
REMARK  221  A    between atoms: _539  and  _542
REMARK  222  A    between atoms: _542  and  _543
REMARK  223  A    between atoms: _545  and  _547
REMARK  224  A    between atoms: _547  and  _548
REMARK  225  A    between atoms: _551  and  _553
REMARK  226  A    between atoms: _553  and  _554
REMARK  227  A    between atoms: _553  and  _556
REMARK  228  A    between atoms: _556  and  _557
REMARK  229  A    between atoms: _562  and  _563
REMARK  230  A    between atoms: _565  and  _567
REMARK  231  A    between atoms: _567  and  _568
REMARK  232  A    between atoms: _567  and  _570
REMARK  233  A    between atoms: _570  and  _571
REMARK  234  A    between atoms: _576  and  _577
REMARK  235  A    between atoms: _579  and  _581
REMARK  236  A    between atoms: _581  and  _582
REMARK  237  A    between atoms: _581  and  _584
REMARK  238  A    between atoms: _584  and  _585
REMARK  239  A    between atoms: _588  and  _590
REMARK  240  A    between atoms: _590  and  _591
REMARK  241  A    between atoms: _594  and  _596
REMARK  242  A    between atoms: _596  and  _597
REMARK  243  A    between atoms: _596  and  _599
REMARK  244  A    between atoms: _599  and  _600
REMARK  245  A    between atoms: _610  and  _612
REMARK  246  A    between atoms: _612  and  _613
REMARK  247  A    between atoms: _616  and  _618
REMARK  248  A    between atoms: _618  and  _619
REMARK  249  A    between atoms: _622  and  _624
REMARK  250  A    between atoms: _624  and  _625
REMARK  251  A    between atoms: _624  and  _627
REMARK  252  A    between atoms: _627  and  _628
REMARK  253  A    between atoms: _628  and  _629
REMARK  254  A    between atoms: _634  and  _636
REMARK  255  A    between atoms: _636  and  _637
REMARK  256  A    between atoms: _636  and  _639
REMARK  257  A    between atoms: _639  and  _640
REMARK  258  A    between atoms: _643  and  _645
REMARK  259  A    between atoms: _645  and  _646
REMARK  260  A    between atoms: _645  and  _648
REMARK  261  A    between atoms: _648  and  _649
REMARK  262  A    between atoms: _652  and  _654
REMARK  263  A    between atoms: _654  and  _655
REMARK  264  A    between atoms: _654  and  _657
REMARK  265  A    between atoms: _657  and  _658
REMARK  266  A    between atoms: _658  and  _659
REMARK  267  A    between atoms: _664  and  _666
REMARK  268  A    between atoms: _666  and  _667
REMARK  269  A    between atoms: _666  and  _669
REMARK  270  A    between atoms: _669  and  _670
REMARK  271  A    between atoms: _670  and  _671
REMARK  272  A    between atoms: _671  and  _672
REMARK  273  A    between atoms: _681  and  _683
REMARK  274  A    between atoms: _683  and  _684
REMARK  275  A    between atoms: _683  and  _686
REMARK  276  A    between atoms: _686  and  _687
REMARK  277  A    between atoms: _687  and  _688
REMARK  278  A    between atoms: _688  and  _689
REMARK  279  A    between atoms: _689  and  _690
REMARK  280  A    between atoms: _694  and  _696
REMARK  281  A    between atoms: _696  and  _697
REMARK  282  A    between atoms: _696  and  _699
REMARK  283  A    between atoms: _699  and  _700
REMARK  284  A    between atoms: _710  and  _712
REMARK  285  A    between atoms: _712  and  _713
REMARK  286  A    between atoms: _712  and  _715
REMARK  287  A    between atoms: _715  and  _716
REMARK  288  A    between atoms: _716  and  _717
REMARK  289  A    between atoms: _720  and  _722
REMARK  290  A    between atoms: _722  and  _723
REMARK  291  A    between atoms: _726  and  _728
REMARK  292  A    between atoms: _728  and  _729
REMARK  293  A    between atoms: _732  and  _734
REMARK  294  A    between atoms: _734  and  _735
REMARK  295  A    between atoms: _734  and  _737
REMARK  296  A    between atoms: _737  and  _738
REMARK  297  A    between atoms: _738  and  _739
REMARK  298  A    between atoms: _739  and  _740
REMARK  299  A    between atoms: _749  and  _751
REMARK  300  A    between atoms: _751  and  _752
REMARK  301  A    between atoms: _751  and  _754
REMARK  302  A    between atoms: _754  and  _755
REMARK  303  A    between atoms: _755  and  _756
REMARK  304  A    between atoms: _759  and  _761
REMARK  305  A    between atoms: _761  and  _762
REMARK  306  A    between atoms: _765  and  _767
REMARK  307  A    between atoms: _767  and  _768
REMARK  308  A    between atoms: _767  and  _770
REMARK  309  A    between atoms: _770  and  _771
REMARK  310  A    between atoms: _771  and  _772
REMARK  311  A    between atoms: _775  and  _777
REMARK  312  A    between atoms: _777  and  _778
REMARK  313  A    between atoms: _777  and  _780
REMARK  314  A    between atoms: _780  and  _781
REMARK  315  A    between atoms: _781  and  _782
REMARK  316  A    between atoms: _787  and  _789
REMARK  317  A    between atoms: _789  and  _790
REMARK  318  A    between atoms: _789  and  _792
REMARK  319  A    between atoms: _792  and  _793
REMARK  320  A    between atoms: _803  and  _805
REMARK  321  A    between atoms: _805  and  _806
REMARK  322  A    between atoms: _805  and  _808
REMARK  323  A    between atoms: _808  and  _809
REMARK  324  A    between atoms: _809  and  _810
REMARK  325  A    between atoms: _810  and  _811
REMARK  326  A    between atoms: _820  and  _822
REMARK  327  A    between atoms: _822  and  _823
REMARK  328  A    between atoms: _826  and  _828
REMARK  329  A    between atoms: _828  and  _829
REMARK  330  A    between atoms: _828  and  _831
REMARK  331  A    between atoms: _831  and  _832
REMARK  332  A    between atoms: _837  and  _838
REMARK  333  A    between atoms: _840  and  _842
REMARK  334  A    between atoms: _842  and  _843
REMARK  335  A    between atoms: _842  and  _845
REMARK  336  A    between atoms: _845  and  _846
REMARK  337  A    between atoms: _849  and  _851
REMARK  338  A    between atoms: _851  and  _852
REMARK  339  A    between atoms: _854  and  _856
REMARK  340  A    between atoms: _856  and  _857
REMARK  341  A    between atoms: _856  and  _859
REMARK  342  A    between atoms: _859  and  _860
REMARK  343  A    between atoms: _863  and  _865
REMARK  344  A    between atoms: _865  and  _866
REMARK  345  A    between atoms: _865  and  _868
REMARK  346  A    between atoms: _868  and  _869
REMARK  347  A    between atoms: _870  and  _872
REMARK  348  A    between atoms: _872  and  _873
REMARK  349  A    between atoms: _872  and  _875
REMARK  350  A    between atoms: _878  and  _880
REMARK  351  A    between atoms: _880  and  _881
REMARK  352  A    between atoms: _880  and  _883
REMARK  353  A    between atoms: _883  and  _884
REMARK  354  A    between atoms: _884  and  _885
REMARK  355  A    between atoms: _888  and  _890
REMARK  356  A    between atoms: _890  and  _891
REMARK  357  A    between atoms: _890  and  _893
REMARK  358  A    between atoms: _893  and  _894
REMARK  359  A    between atoms: _904  and  _906
REMARK  360  A    between atoms: _906  and  _907
REMARK  361  A    between atoms: _906  and  _909
REMARK  362  A    between atoms: _909  and  _910
REMARK  363  A    between atoms: _913  and  _915
REMARK  364  A    between atoms: _915  and  _916
REMARK  365  A    between atoms: _915  and  _918
REMARK  366  A    between atoms: _918  and  _919
REMARK  367  A    between atoms: _919  and  _920
REMARK  368  A    between atoms: _920  and  _921
REMARK  369  A    between atoms: _930  and  _932
REMARK  370  A    between atoms: _932  and  _933
REMARK  371  A    between atoms: _932  and  _935
REMARK  372  A    between atoms: _935  and  _936
REMARK  373  A    between atoms: _941  and  _942
REMARK  374  A    between atoms: _944  and  _946
REMARK  375  A    between atoms: _946  and  _947
REMARK  376  A    between atoms: _946  and  _949
REMARK  377  A    between atoms: _949  and  _950
REMARK                            x       y       z     vdW  Elec       q    Type
REMARK                         _______ _______ _______ _____ _____    ______ ____
ROOT
ATOM      1  CA  VAL A   2      15.025  33.675  28.660  0.00  0.00    +0.148 C 
ENDROOT
BRANCH   1   4
ATOM      2  C   ALA A   1      16.918  34.743  29.712  0.00  0.00    +0.238 C 
ATOM      3  O   ALA A   1      16.214  35.565  30.293  0.00  0.00    -0.274 OA
ATOM      4  N   VAL A   2      16.442  33.782  28.931  0.00  0.00    -0.297 N 
ATOM      5  H   VAL A   2      17.098  33.095  28.507  0.00  0.00    +0.150 HD
BRANCH   2   6
ATOM      6  CA  ALA A   1      18.397  34.716  29.946  0.00  0.00    +0.145 C 
ATOM      7  CB  ALA A   1      18.684  34.183  31.350  0.00  0.00    +0.028 C 
BRANCH   6   8
ATOM      8  N   ALA A   1      18.878  36.077  29.788  0.00  0.00    -0.238 NA
ATOM      9  H   ALA A   1      18.404  36.851  30.295  0.00  0.00    +0.142 HD
ENDBRANCH   6   8
ENDBRANCH   2   6
ENDBRANCH   1   4
BRANCH   1  10
ATOM     10  C   VAL A   2      14.596  32.222  28.873  0.00  0.00    +0.241 C 
ATOM     11  N   GLY A   3      13.409  32.023  29.440  0.00  0.00    -0.296 N 
ATOM     12  H   GLY A   3      12.829  32.844  29.708  0.00  0.00    +0.150 HD
ATOM     13  O   VAL A   2      15.336  31.308  28.545  0.00  0.00    -0.273 OA
BRANCH  11  14
ATOM     14  CA  GLY A   3      12.899  30.669  29.696  0.00  0.00    +0.163 C 
BRANCH  14  15
ATOM     15  C   GLY A   3      11.626  30.458  28.887  0.00  0.00    +0.229 C 
ATOM     16  O   GLY A   3      10.776  31.372  28.792  0.00  0.00    -0.286 OA
ENDBRANCH  14  15
ENDBRANCH  11  14
ENDBRANCH   1  10
BRANCH   1  17
ATOM     17  CB  VAL A   2      14.706  34.140  27.237  0.00  0.00    +0.027 C 
ATOM     18  CG2 VAL A   2      15.192  35.608  26.981  0.00  0.00    +0.002 C 
ATOM     19  CG1 VAL A   2      13.247  34.016  26.967  0.00  0.00    +0.002 C 
ENDBRANCH   1  17
TORSDOF 7
REMARK  Name = ../refined-set-2016/1xr9/1xr9_pocket.pdb
REMARK  377 active torsions:
REMARK  status: ('A' for Active; 'I' for Inactive)
REMARK    1  A    between atoms: _1  and  _3
REMARK    2  A    between atoms: _3  and  _4
REMARK    3  A    between atoms: _3  and  _6
REMARK    4  A    between atoms: _6  and  _7
REMARK    5  A    between atoms: _7  and  _8
REMARK    6  A    between atoms: _10  and  _12
REMARK    7  A    between atoms: _12  and  _13
REMARK    8  A    between atoms: _12  and  _15
REMARK    9  A    between atoms: _15  and  _16
REMARK   10  A    between atoms: _16  and  _17
REMARK   11  A    between atoms: _17  and  _18
REMARK   12  A    between atoms: _27  and  _29
REMARK   13  A    between atoms: _29  and  _30
REMARK   14  A    between atoms: _29  and  _32
REMARK   15  A    between atoms: _32  and  _33
REMARK   16  A    between atoms: _38  and  _39
REMARK   17  A    between atoms: _41  and  _43
REMARK   18  A    between atoms: _43  and  _44
REMARK   19  A    between atoms: _43  and  _46
REMARK   20  A    between atoms: _46  and  _47
REMARK   21  A    between atoms: _53  and  _55
REMARK   22  A    between atoms: _55  and  _56
REMARK   23  A    between atoms: _55  and  _58
REMARK   24  A    between atoms: _58  and  _59
REMARK   25  A    between atoms: _64  and  _65
REMARK   26  A    between atoms: _67  and  _69
REMARK   27  A    between atoms: _69  and  _70
REMARK   28  A    between atoms: _69  and  _72
REMARK   29  A    between atoms: _72  and  _73
REMARK   30  A    between atoms: _79  and  _81
REMARK   31  A    between atoms: _81  and  _82
REMARK   32  A    between atoms: _85  and  _87
REMARK   33  A    between atoms: _87  and  _88
REMARK   34  A    between atoms: _87  and  _90
REMARK   35  A    between atoms: _93  and  _95
REMARK   36  A    between atoms: _95  and  _96
REMARK   37  A    between atoms: _98  and  _100
REMARK   38  A    between atoms: _100  and  _101
REMARK   39  A    between atoms: _100  and  _103
REMARK   40  A    between atoms: _106  and  _108
REMARK   41  A    between atoms: _108  and  _109
REMARK   42  A    between atoms: _108  and  _111
REMARK   43  A    between atoms: _111  and  _112
REMARK   44  A    between atoms: _118  and  _120
REMARK   45  A    between atoms: _120  and  _121
REMARK   46  A    between atoms: _120  and  _123
REMARK   47  A    between atoms: _126  and  _128
REMARK   48  A    between atoms: _128  and  _129
REMARK   49  A    between atoms: _128  and  _131
REMARK   50  A    between atoms: _131  and  _132
REMARK   51  A    between atoms: _138  and  _140
REMARK   52  A    between atoms: _140  and  _141
REMARK   53  A    between atoms: _140  and  _143
REMARK   54  A    between atoms: _143  and  _144
REMARK   55  A    between atoms: _144  and  _145
REMARK   56  A    between atoms: _147  and  _149
REMARK   57  A    between atoms: _149  and  _150
REMARK   58  A    between atoms: _149  and  _152
REMARK   59  A    between atoms: _152  and  _153
REMARK   60  A    between atoms: _156  and  _158
REMARK   61  A    between atoms: _158  and  _159
REMARK   62  A    between atoms: _158  and  _161
REMARK   63  A    between atoms: _161  and  _162
REMARK   64  A    between atoms: _162  and  _163
REMARK   65  A    between atoms: _166  and  _168
REMARK   66  A    between atoms: _168  and  _169
REMARK   67  A    between atoms: _168  and  _171
REMARK   68  A    between atoms: _171  and  _172
REMARK   69  A    between atoms: _172  and  _173
REMARK   70  A    between atoms: _176  and  _178
REMARK   71  A    between atoms: _178  and  _179
REMARK   72  A    between atoms: _178  and  _181
REMARK   73  A    between atoms: _181  and  _182
REMARK   74  A    between atoms: _187  and  _188
REMARK   75  A    between atoms: _190  and  _192
REMARK   76  A    between atoms: _192  and  _193
REMARK   77  A    between atoms: _192  and  _195
REMARK   78  A    between atoms: _195  and  _196
REMARK   79  A    between atoms: _206  and  _208
REMARK   80  A    between atoms: _208  and  _209
REMARK   81  A    between atoms: _208  and  _211
REMARK   82  A    between atoms: _211  and  _212
REMARK   83  A    between atoms: _215  and  _217
REMARK   84  A    between atoms: _217  and  _218
REMARK   85  A    between atoms: _217  and  _220
REMARK   86  A    between atoms: _220  and  _221
REMARK   87  A    between atoms: _221  and  _222
REMARK   88  A    between atoms: _222  and  _223
REMARK   89  A    between atoms: _232  and  _234
REMARK   90  A    between atoms: _234  and  _235
REMARK   91  A    between atoms: _234  and  _237
REMARK   92  A    between atoms: _237  and  _238
REMARK   93  A    between atoms: _238  and  _239
REMARK   94  A    between atoms: _242  and  _244
REMARK   95  A    between atoms: _244  and  _245
REMARK   96  A    between atoms: _244  and  _247
REMARK   97  A    between atoms: _247  and  _248
REMARK   98  A    between atoms: _251  and  _253
REMARK   99  A    between atoms: _253  and  _254
REMARK  100  A    between atoms: _253  and  _256
REMARK  101  A    between atoms: _256  and  _257
REMARK  102  A    between atoms: _257  and  _258
REMARK  103  A    between atoms: _263  and  _265
REMARK  104  A    between atoms: _265  and  _266
REMARK  105  A    between atoms: _265  and  _268
REMARK  106  A    between atoms: _268  and  _269
REMARK  107  A    between atoms: _272  and  _274
REMARK  108  A    between atoms: _274  and  _275
REMARK  109  A    between atoms: _274  and  _277
REMARK  110  A    between atoms: _277  and  _278
REMARK  111  A    between atoms: _280  and  _282
REMARK  112  A    between atoms: _282  and  _283
REMARK  113  A    between atoms: _282  and  _285
REMARK  114  A    between atoms: _285  and  _286
REMARK  115  A    between atoms: _286  and  _287
REMARK  116  A    between atoms: _287  and  _288
REMARK  117  A    between atoms: _288  and  _289
REMARK  118  A    between atoms: _293  and  _295
REMARK  119  A    between atoms: _295  and  _296
REMARK  120  A    between atoms: _295  and  _298
REMARK  121  A    between atoms: _298  and  _299
REMARK  122  A    between atoms: _302  and  _304
REMARK  123  A    between atoms: _304  and  _305
REMARK  124  A    between atoms: _304  and  _307
REMARK  125  A    between atoms: _307  and  _308
REMARK  126  A    between atoms: _313  and  _315
REMARK  127  A    between atoms: _315  and  _316
REMARK  128  A    between atoms: _315  and  _318
REMARK  129  A    between atoms: _318  and  _319
REMARK  130  A    between atoms: _319  and  _320
REMARK  131  A    between atoms: _325  and  _327
REMARK  132  A    between atoms: _327  and  _328
REMARK  133  A    between atoms: _327  and  _330
REMARK  134  A    between atoms: _330  and  _331
REMARK  135  A    between atoms: _334  and  _336
REMARK  136  A    between atoms: _336  and  _337
REMARK  137  A    between atoms: _336  and  _339
REMARK  138  A    between atoms: _339  and  _340
REMARK  139  A    between atoms: _345  and  _346
REMARK  140  A    between atoms: _348  and  _350
REMARK  141  A    between atoms: _350  and  _351
REMARK  142  A    between atoms: _350  and  _353
REMARK  143  A    between atoms: _353  and  _354
REMARK  144  A    between atoms: _354  and  _355
REMARK  145  A    between atoms: _355  and  _356
REMARK  146  A    between atoms: _365  and  _367
REMARK  147  A    between atoms: _367  and  _368
REMARK  148  A    between atoms: _367  and  _370
REMARK  149  A    between atoms: _370  and  _371
REMARK  150  A    between atoms: _371  and  _372
REMARK  151  A    between atoms: _375  and  _377
REMARK  152  A    between atoms: _377  and  _378
REMARK  153  A    between atoms: _377  and  _380
REMARK  154  A    between atoms: _380  and  _381
REMARK  155  A    between atoms: _383  and  _385
REMARK  156  A    between atoms: _385  and  _386
REMARK  157  A    between atoms: _385  and  _388
REMARK  158  A    between atoms: _388  and  _389
REMARK  159  A    between atoms: _392  and  _394
REMARK  160  A    between atoms: _394  and  _395
REMARK  161  A    between atoms: _394  and  _397
REMARK  162  A    between atoms: _397  and  _398
REMARK  163  A    between atoms: _398  and  _399
REMARK  164  A    between atoms: _399  and  _400
REMARK  165  A    between atoms: _409  and  _411
REMARK  166  A    between atoms: _411  and  _412
REMARK  167  A    between atoms: _411  and  _414
REMARK  168  A    between atoms: _414  and  _415
REMARK  169  A    between atoms: _420  and  _422
REMARK  170  A    between atoms: _422  and  _423
REMARK  171  A    between atoms: _422  and  _425
REMARK  172  A    between atoms: _425  and  _426
REMARK  173  A    between atoms: _429  and  _431
REMARK  174  A    between atoms: _431  and  _432
REMARK  175  A    between atoms: _431  and  _434
REMARK  176  A    between atoms: _434  and  _435
REMARK  177  A    between atoms: _440  and  _441
REMARK  178  A    between atoms: _443  and  _445
REMARK  179  A    between atoms: _445  and  _446
REMARK  180  A    between atoms: _445  and  _448
REMARK  181  A    between atoms: _448  and  _449
REMARK  182  A    between atoms: _452  and  _454
REMARK  183  A    between atoms: _454  and  _455
REMARK  184  A    between atoms: _454  and  _457
REMARK  185  A    between atoms: _457  and  _458
REMARK  186  A    between atoms: _458  and  _459
REMARK  187  A    between atoms: _464  and  _466
REMARK  188  A    between atoms: _466  and  _467
REMARK  189  A    between atoms: _466  and  _469
REMARK  190  A    between atoms: _469  and  _470
REMARK  191  A    between atoms: _470  and  _471
REMARK  192  A    between atoms: _471  and  _472
REMARK  193  A    between atoms: _481  and  _483
REMARK  194  A    between atoms: _483  and  _484
REMARK  195  A    between atoms: _483  and  _486
REMARK  196  A    between atoms: _486  and  _487
REMARK  197  A    between atoms: _487  and  _488
REMARK  198  A    between atoms: _490  and  _492
REMARK  199  A    between atoms: _492  and  _493
REMARK  200  A    between atoms: _492  and  _495
REMARK  201  A    between atoms: _495  and  _496
REMARK  202  A    between atoms: _501  and  _502
REMARK  203  A    between atoms: _504  and  _506
REMARK  204  A    between atoms: _506  and  _507
REMARK  205  A    between atoms: _509  and  _511
REMARK  206  A    between atoms: _511  and  _512
REMARK  207  A    between atoms: _511  and  _514
REMARK  208  A    between atoms: _514  and  _515
REMARK  209  A    between atoms: _515  and  _869
REMARK  210  A    between atoms: _516  and  _518
REMARK  211  A    between atoms: _518  and  _519
REMARK  212  A    between atoms: _518  and  _521
REMARK  213  A    between atoms: _521  and  _522
REMARK  214  A    between atoms: _525  and  _527
REMARK  215  A    between atoms: _527  and  _528
REMARK  216  A    between atoms: _527  and  _530
REMARK  217  A    between atoms: _530  and  _531
REMARK  218  A    between atoms: _531  and  _532
REMARK  219  A    between atoms: _537  and  _539
REMARK  220  A    between atoms: _539  and  _540
REMARK  221  A    between atoms: _539  and  _542
REMARK  222  A    between atoms: _542  and  _543
REMARK  223  A    between atoms: _545  and  _547
REMARK  224  A    between atoms: _547  and  _548
REMARK  225  A    between atoms: _551  and  _553
REMARK  226  A    between atoms: _553  and  _554
REMARK  227  A    between atoms: _553  and  _556
REMARK  228  A    between atoms: _556  and  _557
REMARK  229  A    between atoms: _562  and  _563
REMARK  230  A    between atoms: _565  and  _567
REMARK  231  A    between atoms: _567  and  _568
REMARK  232  A    between atoms: _567  and  _570
REMARK  233  A    between atoms: _570  and  _571
REMARK  234  A    between atoms: _576  and  _577
REMARK  235  A    between atoms: _579  and  _581
REMARK  236  A    between atoms: _581  and  _582
REMARK  237  A    between atoms: _581  and  _584
REMARK  238  A    between atoms: _584  and  _585
REMARK  239  A    between atoms: _588  and  _590
REMARK  240  A    between atoms: _590  and  _591
REMARK  241  A    between atoms: _594  and  _596
REMARK  242  A    between atoms: _596  and  _597
REMARK  243  A    between atoms: _596  and  _599
REMARK  244  A    between atoms: _599  and  _600
REMARK  245  A    between atoms: _610  and  _612
REMARK  246  A    between atoms: _612  and  _613
REMARK  247  A    between atoms: _616  and  _618
REMARK  248  A    between atoms: _618  and  _619
REMARK  249  A    between atoms: _622  and  _624
REMARK  250  A    between atoms: _624  and  _625
REMARK  251  A    between atoms: _624  and  _627
REMARK  252  A    between atoms: _627  and  _628
REMARK  253  A    between atoms: _628  and  _629
REMARK  254  A    between atoms: _634  and  _636
REMARK  255  A    between atoms: _636  and  _637
REMARK  256  A    between atoms: _636  and  _639
REMARK  257  A    between atoms: _639  and  _640
REMARK  258  A    between atoms: _643  and  _645
REMARK  259  A    between atoms: _645  and  _646
REMARK  260  A    between atoms: _645  and  _648
REMARK  261  A    between atoms: _648  and  _649
REMARK  262  A    between atoms: _652  and  _654
REMARK  263  A    between atoms: _654  and  _655
REMARK  264  A    between atoms: _654  and  _657
REMARK  265  A    between atoms: _657  and  _658
REMARK  266  A    between atoms: _658  and  _659
REMARK  267  A    between atoms: _664  and  _666
REMARK  268  A    between atoms: _666  and  _667
REMARK  269  A    between atoms: _666  and  _669
REMARK  270  A    between atoms: _669  and  _670
REMARK  271  A    between atoms: _670  and  _671
REMARK  272  A    between atoms: _671  and  _672
REMARK  273  A    between atoms: _681  and  _683
REMARK  274  A    between atoms: _683  and  _684
REMARK  275  A    between atoms: _683  and  _686
REMARK  276  A    between atoms: _686  and  _687
REMARK  277  A    between atoms: _687  and  _688
REMARK  278  A    between atoms: _688  and  _689
REMARK  279  A    between atoms: _689  and  _690
REMARK  280  A    between atoms: _694  and  _696
REMARK  281  A    between atoms: _696  and  _697
REMARK  282  A    between atoms: _696  and  _699
REMARK  283  A    between atoms: _699  and  _700
REMARK  284  A    between atoms: _710  and  _712
REMARK  285  A    between atoms: _712  and  _713
REMARK  286  A    between atoms: _712  and  _715
REMARK  287  A    between atoms: _715  and  _716
REMARK  288  A    between atoms: _716  and  _717
REMARK  289  A    between atoms: _720  and  _722
REMARK  290  A    between atoms: _722  and  _723
REMARK  291  A    between atoms: _726  and  _728
REMARK  292  A    between atoms: _728  and  _729
REMARK  293  A    between atoms: _732  and  _734
REMARK  294  A    between atoms: _734  and  _735
REMARK  295  A    between atoms: _734  and  _737
REMARK  296  A    between atoms: _737  and  _738
REMARK  297  A    between atoms: _738  and  _739
REMARK  298  A    between atoms: _739  and  _740
REMARK  299  A    between atoms: _749  and  _751
REMARK  300  A    between atoms: _751  and  _752
REMARK  301  A    between atoms: _751  and  _754
REMARK  302  A    between atoms: _754  and  _755
REMARK  303  A    between atoms: _755  and  _756
REMARK  304  A    between atoms: _759  and  _761
REMARK  305  A    between atoms: _761  and  _762
REMARK  306  A    between atoms: _765  and  _767
REMARK  307  A    between atoms: _767  and  _768
REMARK  308  A    between atoms: _767  and  _770
REMARK  309  A    between atoms: _770  and  _771
REMARK  310  A    between atoms: _771  and  _772
REMARK  311  A    between atoms: _775  and  _777
REMARK  312  A    between atoms: _777  and  _778
REMARK  313  A    between atoms: _777  and  _780
REMARK  314  A    between atoms: _780  and  _781
REMARK  315  A    between atoms: _781  and  _782
REMARK  316  A    between atoms: _787  and  _789
REMARK  317  A    between atoms: _789  and  _790
REMARK  318  A    between atoms: _789  and  _792
REMARK  319  A    between atoms: _792  and  _793
REMARK  320  A    between atoms: _803  and  _805
REMARK  321  A    between atoms: _805  and  _806
REMARK  322  A    between atoms: _805  and  _808
REMARK  323  A    between atoms: _808  and  _809
REMARK  324  A    between atoms: _809  and  _810
REMARK  325  A    between atoms: _810  and  _811
REMARK  326  A    between atoms: _820  and  _822
REMARK  327  A    between atoms: _822  and  _823
REMARK  328  A    between atoms: _826  and  _828
REMARK  329  A    between atoms: _828  and  _829
REMARK  330  A    between atoms: _828  and  _831
REMARK  331  A    between atoms: _831  and  _832
REMARK  332  A    between atoms: _837  and  _838
REMARK  333  A    between atoms: _840  and  _842
REMARK  334  A    between atoms: _842  and  _843
REMARK  335  A    between atoms: _842  and  _845
REMARK  336  A    between atoms: _845  and  _846
REMARK  337  A    between atoms: _849  and  _851
REMARK  338  A    between atoms: _851  and  _852
REMARK  339  A    between atoms: _854  and  _856
REMARK  340  A    between atoms: _856  and  _857
REMARK  341  A    between atoms: _856  and  _859
REMARK  342  A    between atoms: _859  and  _860
REMARK  343  A    between atoms: _863  and  _865
REMARK  344  A    between atoms: _865  and  _866
REMARK  345  A    between atoms: _865  and  _868
REMARK  346  A    between atoms: _868  and  _869
REMARK  347  A    between atoms: _870  and  _872
REMARK  348  A    between atoms: _872  and  _873
REMARK  349  A    between atoms: _872  and  _875
REMARK  350  A    between atoms: _878  and  _880
REMARK  351  A    between atoms: _880  and  _881
REMARK  352  A    between atoms: _880  and  _883
REMARK  353  A    between atoms: _883  and  _884
REMARK  354  A    between atoms: _884  and  _885
REMARK  355  A    between atoms: _888  and  _890
REMARK  356  A    between atoms: _890  and  _891
REMARK  357  A    between atoms: _890  and  _893
REMARK  358  A    between atoms: _893  and  _894
REMARK  359  A    between atoms: _904  and  _906
REMARK  360  A    between atoms: _906  and  _907
REMARK  361  A    between atoms: _906  and  _909
REMARK  362  A    between atoms: _909  and  _910
REMARK  363  A    between atoms: _913  and  _915
REMARK  364  A    between atoms: _915  and  _916
REMARK  365  A    between atoms: _915  and  _918
REMARK  366  A    between atoms: _918  and  _919
REMARK  367  A    between atoms: _919  and  _920
REMARK  368  A    between atoms: _920  and  _921
REMARK  369  A    between atoms: _930  and  _932
REMARK  370  A    between atoms: _932  and  _933
REMARK  371  A    between atoms: _932  and  _935
REMARK  372  A    between atoms: _935  and  _936
REMARK  373  A    between atoms: _941  and  _942
REMARK  374  A    between atoms: _944  and  _946
REMARK  375  A    between atoms: _946  and  _947
REMARK  376  A    between atoms: _946  and  _949
REMARK  377  A    between atoms: _949  and  _950
REMARK                            x       y       z     vdW  Elec       q    Type
REMARK                         _______ _______ _______ _____ _____    ______ ____
ROOT
ATOM      1  CA  VAL A   1       7.851  26.045  27.993  0.00  0.00    +0.133 C 
ENDROOT
BRANCH   1   2
ATOM      2  CB  VAL A   1       6.753  25.913  29.033  0.00  0.00    +0.023 C 
ATOM      3  CG2 VAL A   1       7.380  26.047  30.451  0.00  0.00    +0.002 C 
ATOM      4  CG1 VAL A   1       6.034  24.543  28.889  0.00  0.00    +0.002 C 
ENDBRANCH   1   2
BRANCH   1   5
ATOM      5  N   VAL A   1       8.477  27.374  27.984  0.00  0.00    -0.239 NA
ATOM      6  H   VAL A   1       7.874  28.219  27.918  0.00  0.00    +0.142 HD
ENDBRANCH   1   5
BRANCH   1   7
ATOM      7  C   VAL A   1       7.290  25.904  26.576  0.00  0.00    +0.224 C 
ATOM      8  O   VAL A   1       6.474  26.721  26.142  0.00  0.00    -0.287 OA
ENDBRANCH   1   7
TORSDOF 3
REMARK  Name = ../refined-set-2016/1xr9/1xr9_pocket.pdb
REMARK  377 active torsions:
REMARK  status: ('A' for Active; 'I' for Inactive)
REMARK    1  A    between atoms: _1  and  _3
REMARK    2  A    between atoms: _3  and  _4
REMARK    3  A    between atoms: _3  and  _6
REMARK    4  A    between atoms: _6  and  _7
REMARK    5  A    between atoms: _7  and  _8
REMARK    6  A    between atoms: _10  and  _12
REMARK    7  A    between atoms: _12  and  _13
REMARK    8  A    between atoms: _12  and  _15
REMARK    9  A    between atoms: _15  and  _16
REMARK   10  A    between atoms: _16  and  _17
REMARK   11  A    between atoms: _17  and  _18
REMARK   12  A    between atoms: _27  and  _29
REMARK   13  A    between atoms: _29  and  _30
REMARK   14  A    between atoms: _29  and  _32
REMARK   15  A    between atoms: _32  and  _33
REMARK   16  A    between atoms: _38  and  _39
REMARK   17  A    between atoms: _41  and  _43
REMARK   18  A    between atoms: _43  and  _44
REMARK   19  A    between atoms: _43  and  _46
REMARK   20  A    between atoms: _46  and  _47
REMARK   21  A    between atoms: _53  and  _55
REMARK   22  A    between atoms: _55  and  _56
REMARK   23  A    between atoms: _55  and  _58
REMARK   24  A    between atoms: _58  and  _59
REMARK   25  A    between atoms: _64  and  _65
REMARK   26  A    between atoms: _67  and  _69
REMARK   27  A    between atoms: _69  and  _70
REMARK   28  A    between atoms: _69  and  _72
REMARK   29  A    between atoms: _72  and  _73
REMARK   30  A    between atoms: _79  and  _81
REMARK   31  A    between atoms: _81  and  _82
REMARK   32  A    between atoms: _85  and  _87
REMARK   33  A    between atoms: _87  and  _88
REMARK   34  A    between atoms: _87  and  _90
REMARK   35  A    between atoms: _93  and  _95
REMARK   36  A    between atoms: _95  and  _96
REMARK   37  A    between atoms: _98  and  _100
REMARK   38  A    between atoms: _100  and  _101
REMARK   39  A    between atoms: _100  and  _103
REMARK   40  A    between atoms: _106  and  _108
REMARK   41  A    between atoms: _108  and  _109
REMARK   42  A    between atoms: _108  and  _111
REMARK   43  A    between atoms: _111  and  _112
REMARK   44  A    between atoms: _118  and  _120
REMARK   45  A    between atoms: _120  and  _121
REMARK   46  A    between atoms: _120  and  _123
REMARK   47  A    between atoms: _126  and  _128
REMARK   48  A    between atoms: _128  and  _129
REMARK   49  A    between atoms: _128  and  _131
REMARK   50  A    between atoms: _131  and  _132
REMARK   51  A    between atoms: _138  and  _140
REMARK   52  A    between atoms: _140  and  _141
REMARK   53  A    between atoms: _140  and  _143
REMARK   54  A    between atoms: _143  and  _144
REMARK   55  A    between atoms: _144  and  _145
REMARK   56  A    between atoms: _147  and  _149
REMARK   57  A    between atoms: _149  and  _150
REMARK   58  A    between atoms: _149  and  _152
REMARK   59  A    between atoms: _152  and  _153
REMARK   60  A    between atoms: _156  and  _158
REMARK   61  A    between atoms: _158  and  _159
REMARK   62  A    between atoms: _158  and  _161
REMARK   63  A    between atoms: _161  and  _162
REMARK   64  A    between atoms: _162  and  _163
REMARK   65  A    between atoms: _166  and  _168
REMARK   66  A    between atoms: _168  and  _169
REMARK   67  A    between atoms: _168  and  _171
REMARK   68  A    between atoms: _171  and  _172
REMARK   69  A    between atoms: _172  and  _173
REMARK   70  A    between atoms: _176  and  _178
REMARK   71  A    between atoms: _178  and  _179
REMARK   72  A    between atoms: _178  and  _181
REMARK   73  A    between atoms: _181  and  _182
REMARK   74  A    between atoms: _187  and  _188
REMARK   75  A    between atoms: _190  and  _192
REMARK   76  A    between atoms: _192  and  _193
REMARK   77  A    between atoms: _192  and  _195
REMARK   78  A    between atoms: _195  and  _196
REMARK   79  A    between atoms: _206  and  _208
REMARK   80  A    between atoms: _208  and  _209
REMARK   81  A    between atoms: _208  and  _211
REMARK   82  A    between atoms: _211  and  _212
REMARK   83  A    between atoms: _215  and  _217
REMARK   84  A    between atoms: _217  and  _218
REMARK   85  A    between atoms: _217  and  _220
REMARK   86  A    between atoms: _220  and  _221
REMARK   87  A    between atoms: _221  and  _222
REMARK   88  A    between atoms: _222  and  _223
REMARK   89  A    between atoms: _232  and  _234
REMARK   90  A    between atoms: _234  and  _235
REMARK   91  A    between atoms: _234  and  _237
REMARK   92  A    between atoms: _237  and  _238
REMARK   93  A    between atoms: _238  and  _239
REMARK   94  A    between atoms: _242  and  _244
REMARK   95  A    between atoms: _244  and  _245
REMARK   96  A    between atoms: _244  and  _247
REMARK   97  A    between atoms: _247  and  _248
REMARK   98  A    between atoms: _251  and  _253
REMARK   99  A    between atoms: _253  and  _254
REMARK  100  A    between atoms: _253  and  _256
REMARK  101  A    between atoms: _256  and  _257
REMARK  102  A    between atoms: _257  and  _258
REMARK  103  A    between atoms: _263  and  _265
REMARK  104  A    between atoms: _265  and  _266
REMARK  105  A    between atoms: _265  and  _268
REMARK  106  A    between atoms: _268  and  _269
REMARK  107  A    between atoms: _272  and  _274
REMARK  108  A    between atoms: _274  and  _275
REMARK  109  A    between atoms: _274  and  _277
REMARK  110  A    between atoms: _277  and  _278
REMARK  111  A    between atoms: _280  and  _282
REMARK  112  A    between atoms: _282  and  _283
REMARK  113  A    between atoms: _282  and  _285
REMARK  114  A    between atoms: _285  and  _286
REMARK  115  A    between atoms: _286  and  _287
REMARK  116  A    between atoms: _287  and  _288
REMARK  117  A    between atoms: _288  and  _289
REMARK  118  A    between atoms: _293  and  _295
REMARK  119  A    between atoms: _295  and  _296
REMARK  120  A    between atoms: _295  and  _298
REMARK  121  A    between atoms: _298  and  _299
REMARK  122  A    between atoms: _302  and  _304
REMARK  123  A    between atoms: _304  and  _305
REMARK  124  A    between atoms: _304  and  _307
REMARK  125  A    between atoms: _307  and  _308
REMARK  126  A    between atoms: _313  and  _315
REMARK  127  A    between atoms: _315  and  _316
REMARK  128  A    between atoms: _315  and  _318
REMARK  129  A    between atoms: _318  and  _319
REMARK  130  A    between atoms: _319  and  _320
REMARK  131  A    between atoms: _325  and  _327
REMARK  132  A    between atoms: _327  and  _328
REMARK  133  A    between atoms: _327  and  _330
REMARK  134  A    between atoms: _330  and  _331
REMARK  135  A    between atoms: _334  and  _336
REMARK  136  A    between atoms: _336  and  _337
REMARK  137  A    between atoms: _336  and  _339
REMARK  138  A    between atoms: _339  and  _340
REMARK  139  A    between atoms: _345  and  _346
REMARK  140  A    between atoms: _348  and  _350
REMARK  141  A    between atoms: _350  and  _351
REMARK  142  A    between atoms: _350  and  _353
REMARK  143  A    between atoms: _353  and  _354
REMARK  144  A    between atoms: _354  and  _355
REMARK  145  A    between atoms: _355  and  _356
REMARK  146  A    between atoms: _365  and  _367
REMARK  147  A    between atoms: _367  and  _368
REMARK  148  A    between atoms: _367  and  _370
REMARK  149  A    between atoms: _370  and  _371
REMARK  150  A    between atoms: _371  and  _372
REMARK  151  A    between atoms: _375  and  _377
REMARK  152  A    between atoms: _377  and  _378
REMARK  153  A    between atoms: _377  and  _380
REMARK  154  A    between atoms: _380  and  _381
REMARK  155  A    between atoms: _383  and  _385
REMARK  156  A    between atoms: _385  and  _386
REMARK  157  A    between atoms: _385  and  _388
REMARK  158  A    between atoms: _388  and  _389
REMARK  159  A    between atoms: _392  and  _394
REMARK  160  A    between atoms: _394  and  _395
REMARK  161  A    between atoms: _394  and  _397
REMARK  162  A    between atoms: _397  and  _398
REMARK  163  A    between atoms: _398  and  _399
REMARK  164  A    between atoms: _399  and  _400
REMARK  165  A    between atoms: _409  and  _411
REMARK  166  A    between atoms: _411  and  _412
REMARK  167  A    between atoms: _411  and  _414
REMARK  168  A    between atoms: _414  and  _415
REMARK  169  A    between atoms: _420  and  _422
REMARK  170  A    between atoms: _422  and  _423
REMARK  171  A    between atoms: _422  and  _425
REMARK  172  A    between atoms: _425  and  _426
REMARK  173  A    between atoms: _429  and  _431
REMARK  174  A    between atoms: _431  and  _432
REMARK  175  A    between atoms: _431  and  _434
REMARK  176  A    between atoms: _434  and  _435
REMARK  177  A    between atoms: _440  and  _441
REMARK  178  A    between atoms: _443  and  _445
REMARK  179  A    between atoms: _445  and  _446
REMARK  180  A    between atoms: _445  and  _448
REMARK  181  A    between atoms: _448  and  _449
REMARK  182  A    between atoms: _452  and  _454
REMARK  183  A    between atoms: _454  and  _455
REMARK  184  A    between atoms: _454  and  _457
REMARK  185  A    between atoms: _457  and  _458
REMARK  186  A    between atoms: _458  and  _459
REMARK  187  A    between atoms: _464  and  _466
REMARK  188  A    between atoms: _466  and  _467
REMARK  189  A    between atoms: _466  and  _469
REMARK  190  A    between atoms: _469  and  _470
REMARK  191  A    between atoms: _470  and  _471
REMARK  192  A    between atoms: _471  and  _472
REMARK  193  A    between atoms: _481  and  _483
REMARK  194  A    between atoms: _483  and  _484
REMARK  195  A    between atoms: _483  and  _486
REMARK  196  A    between atoms: _486  and  _487
REMARK  197  A    between atoms: _487  and  _488
REMARK  198  A    between atoms: _490  and  _492
REMARK  199  A    between atoms: _492  and  _493
REMARK  200  A    between atoms: _492  and  _495
REMARK  201  A    between atoms: _495  and  _496
REMARK  202  A    between atoms: _501  and  _502
REMARK  203  A    between atoms: _504  and  _506
REMARK  204  A    between atoms: _506  and  _507
REMARK  205  A    between atoms: _509  and  _511
REMARK  206  A    between atoms: _511  and  _512
REMARK  207  A    between atoms: _511  and  _514
REMARK  208  A    between atoms: _514  and  _515
REMARK  209  A    between atoms: _515  and  _869
REMARK  210  A    between atoms: _516  and  _518
REMARK  211  A    between atoms: _518  and  _519
REMARK  212  A    between atoms: _518  and  _521
REMARK  213  A    between atoms: _521  and  _522
REMARK  214  A    between atoms: _525  and  _527
REMARK  215  A    between atoms: _527  and  _528
REMARK  216  A    between atoms: _527  and  _530
REMARK  217  A    between atoms: _530  and  _531
REMARK  218  A    between atoms: _531  and  _532
REMARK  219  A    between atoms: _537  and  _539
REMARK  220  A    between atoms: _539  and  _540
REMARK  221  A    between atoms: _539  and  _542
REMARK  222  A    between atoms: _542  and  _543
REMARK  223  A    between atoms: _545  and  _547
REMARK  224  A    between atoms: _547  and  _548
REMARK  225  A    between atoms: _551  and  _553
REMARK  226  A    between atoms: _553  and  _554
REMARK  227  A    between atoms: _553  and  _556
REMARK  228  A    between atoms: _556  and  _557
REMARK  229  A    between atoms: _562  and  _563
REMARK  230  A    between atoms: _565  and  _567
REMARK  231  A    between atoms: _567  and  _568
REMARK  232  A    between atoms: _567  and  _570
REMARK  233  A    between atoms: _570  and  _571
REMARK  234  A    between atoms: _576  and  _577
REMARK  235  A    between atoms: _579  and  _581
REMARK  236  A    between atoms: _581  and  _582
REMARK  237  A    between atoms: _581  and  _584
REMARK  238  A    between atoms: _584  and  _585
REMARK  239  A    between atoms: _588  and  _590
REMARK  240  A    between atoms: _590  and  _591
REMARK  241  A    between atoms: _594  and  _596
REMARK  242  A    between atoms: _596  and  _597
REMARK  243  A    between atoms: _596  and  _599
REMARK  244  A    between atoms: _599  and  _600
REMARK  245  A    between atoms: _610  and  _612
REMARK  246  A    between atoms: _612  and  _613
REMARK  247  A    between atoms: _616  and  _618
REMARK  248  A    between atoms: _618  and  _619
REMARK  249  A    between atoms: _622  and  _624
REMARK  250  A    between atoms: _624  and  _625
REMARK  251  A    between atoms: _624  and  _627
REMARK  252  A    between atoms: _627  and  _628
REMARK  253  A    between atoms: _628  and  _629
REMARK  254  A    between atoms: _634  and  _636
REMARK  255  A    between atoms: _636  and  _637
REMARK  256  A    between atoms: _636  and  _639
REMARK  257  A    between atoms: _639  and  _640
REMARK  258  A    between atoms: _643  and  _645
REMARK  259  A    between atoms: _645  and  _646
REMARK  260  A    between atoms: _645  and  _648
REMARK  261  A    between atoms: _648  and  _649
REMARK  262  A    between atoms: _652  and  _654
REMARK  263  A    between atoms: _654  and  _655
REMARK  264  A    between atoms: _654  and  _657
REMARK  265  A    between atoms: _657  and  _658
REMARK  266  A    between atoms: _658  and  _659
REMARK  267  A    between atoms: _664  and  _666
REMARK  268  A    between atoms: _666  and  _667
REMARK  269  A    between atoms: _666  and  _669
REMARK  270  A    between atoms: _669  and  _670
REMARK  271  A    between atoms: _670  and  _671
REMARK  272  A    between atoms: _671  and  _672
REMARK  273  A    between atoms: _681  and  _683
REMARK  274  A    between atoms: _683  and  _684
REMARK  275  A    between atoms: _683  and  _686
REMARK  276  A    between atoms: _686  and  _687
REMARK  277  A    between atoms: _687  and  _688
REMARK  278  A    between atoms: _688  and  _689
REMARK  279  A    between atoms: _689  and  _690
REMARK  280  A    between atoms: _694  and  _696
REMARK  281  A    between atoms: _696  and  _697
REMARK  282  A    between atoms: _696  and  _699
REMARK  283  A    between atoms: _699  and  _700
REMARK  284  A    between atoms: _710  and  _712
REMARK  285  A    between atoms: _712  and  _713
REMARK  286  A    between atoms: _712  and  _715
REMARK  287  A    between atoms: _715  and  _716
REMARK  288  A    between atoms: _716  and  _717
REMARK  289  A    between atoms: _720  and  _722
REMARK  290  A    between atoms: _722  and  _723
REMARK  291  A    between atoms: _726  and  _728
REMARK  292  A    between atoms: _728  and  _729
REMARK  293  A    between atoms: _732  and  _734
REMARK  294  A    between atoms: _734  and  _735
REMARK  295  A    between atoms: _734  and  _737
REMARK  296  A    between atoms: _737  and  _738
REMARK  297  A    between atoms: _738  and  _739
REMARK  298  A    between atoms: _739  and  _740
REMARK  299  A    between atoms: _749  and  _751
REMARK  300  A    between atoms: _751  and  _752
REMARK  301  A    between atoms: _751  and  _754
REMARK  302  A    between atoms: _754  and  _755
REMARK  303  A    between atoms: _755  and  _756
REMARK  304  A    between atoms: _759  and  _761
REMARK  305  A    between atoms: _761  and  _762
REMARK  306  A    between atoms: _765  and  _767
REMARK  307  A    between atoms: _767  and  _768
REMARK  308  A    between atoms: _767  and  _770
REMARK  309  A    between atoms: _770  and  _771
REMARK  310  A    between atoms: _771  and  _772
REMARK  311  A    between atoms: _775  and  _777
REMARK  312  A    between atoms: _777  and  _778
REMARK  313  A    between atoms: _777  and  _780
REMARK  314  A    between atoms: _780  and  _781
REMARK  315  A    between atoms: _781  and  _782
REMARK  316  A    between atoms: _787  and  _789
REMARK  317  A    between atoms: _789  and  _790
REMARK  318  A    between atoms: _789  and  _792
REMARK  319  A    between atoms: _792  and  _793
REMARK  320  A    between atoms: _803  and  _805
REMARK  321  A    between atoms: _805  and  _806
REMARK  322  A    between atoms: _805  and  _808
REMARK  323  A    between atoms: _808  and  _809
REMARK  324  A    between atoms: _809  and  _810
REMARK  325  A    between atoms: _810  and  _811
REMARK  326  A    between atoms: _820  and  _822
REMARK  327  A    between atoms: _822  and  _823
REMARK  328  A    between atoms: _826  and  _828
REMARK  329  A    between atoms: _828  and  _829
REMARK  330  A    between atoms: _828  and  _831
REMARK  331  A    between atoms: _831  and  _832
REMARK  332  A    between atoms: _837  and  _838
REMARK  333  A    between atoms: _840  and  _842
REMARK  334  A    between atoms: _842  and  _843
REMARK  335  A    between atoms: _842  and  _845
REMARK  336  A    between atoms: _845  and  _846
REMARK  337  A    between atoms: _849  and  _851
REMARK  338  A    between atoms: _851  and  _852
REMARK  339  A    between atoms: _854  and  _856
REMARK  340  A    between atoms: _856  and  _857
REMARK  341  A    between atoms: _856  and  _859
REMARK  342  A    between atoms: _859  and  _860
REMARK  343  A    between atoms: _863  and  _865
REMARK  344  A    between atoms: _865  and  _866
REMARK  345  A    between atoms: _865  and  _868
REMARK  346  A    between atoms: _868  and  _869
REMARK  347  A    between atoms: _870  and  _872
REMARK  348  A    between atoms: _872  and  _873
REMARK  349  A    between atoms: _872  and  _875
REMARK  350  A    between atoms: _878  and  _880
REMARK  351  A    between atoms: _880  and  _881
REMARK  352  A    between atoms: _880  and  _883
REMARK  353  A    between atoms: _883  and  _884
REMARK  354  A    between atoms: _884  and  _885
REMARK  355  A    between atoms: _888  and  _890
REMARK  356  A    between atoms: _890  and  _891
REMARK  357  A    between atoms: _890  and  _893
REMARK  358  A    between atoms: _893  and  _894
REMARK  359  A    between atoms: _904  and  _906
REMARK  360  A    between atoms: _906  and  _907
REMARK  361  A    between atoms: _906  and  _909
REMARK  362  A    between atoms: _909  and  _910
REMARK  363  A    between atoms: _913  and  _915
REMARK  364  A    between atoms: _915  and  _916
REMARK  365  A    between atoms: _915  and  _918
REMARK  366  A    between atoms: _918  and  _919
REMARK  367  A    between atoms: _919  and  _920
REMARK  368  A    between atoms: _920  and  _921
REMARK  369  A    between atoms: _930  and  _932
REMARK  370  A    between atoms: _932  and  _933
REMARK  371  A    between atoms: _932  and  _935
REMARK  372  A    between atoms: _935  and  _936
REMARK  373  A    between atoms: _941  and  _942
REMARK  374  A    between atoms: _944  and  _946
REMARK  375  A    between atoms: _946  and  _947
REMARK  376  A    between atoms: _946  and  _949
REMARK  377  A    between atoms: _949  and  _950
REMARK                            x       y       z     vdW  Elec       q    Type
REMARK                         _______ _______ _______ _____ _____    ______ ____
ROOT
ATOM      1  CA  PHE A   1       7.641  32.755  30.473  0.00  0.00    +0.149 C 
ENDROOT
BRANCH   1   2
ATOM      2  C   PHE A   1       8.481  33.559  31.448  0.00  0.00    +0.239 C 
ATOM      3  O   PHE A   1       7.922  34.132  32.398  0.00  0.00    -0.274 OA
ATOM      4  N   VAL A   2       9.802  33.650  31.243  0.00  0.00    -0.298 N 
ATOM      5  H   VAL A   2      10.253  33.099  30.485  0.00  0.00    +0.150 HD
BRANCH   4   6
ATOM      6  CA  VAL A   2      10.618  34.542  32.104  0.00  0.00    +0.137 C 
BRANCH   6   7
ATOM      7  CB  VAL A   2      11.308  33.827  33.305  0.00  0.00    +0.026 C 
ATOM      8  CG2 VAL A   2      10.322  33.495  34.474  0.00  0.00    +0.002 C 
ATOM      9  CG1 VAL A   2      12.066  32.555  32.840  0.00  0.00    +0.002 C 
ENDBRANCH   6   7
BRANCH   6  10
ATOM     10  C   VAL A   2      11.695  35.198  31.273  0.00  0.00    +0.227 C 
ATOM     11  O   VAL A   2      12.072  34.673  30.207  0.00  0.00    -0.286 OA
ENDBRANCH   6  10
ENDBRANCH   4   6
ENDBRANCH   1   2
BRANCH   1  12
ATOM     12  N   PHE A   1       8.272  32.469  29.168  0.00  0.00    -0.238 NA
ATOM     13  H   PHE A   1       9.228  32.061  29.119  0.00  0.00    +0.142 HD
ENDBRANCH   1  12
BRANCH   1  14
ATOM     14  CB  PHE A   1       7.107  31.478  31.146  0.00  0.00    +0.053 C 
BRANCH  14  15
ATOM     15  CG  PHE A   1       8.186  30.573  31.688  0.00  0.00    -0.020 A 
ATOM     16  CD2 PHE A   1       8.513  30.600  33.041  0.00  0.00    -0.004 A 
ATOM     17  CE2 PHE A   1       9.503  29.764  33.576  0.00  0.00    -0.000 A 
ATOM     18  CZ  PHE A   1      10.187  28.853  32.740  0.00  0.00    -0.000 A 
ATOM     19  CE1 PHE A   1       9.850  28.814  31.354  0.00  0.00    -0.000 A 
ATOM     20  CD1 PHE A   1       8.844  29.664  30.853  0.00  0.00    -0.004 A 
ENDBRANCH  14  15
ENDBRANCH   1  14
TORSDOF 7
REMARK  Name = ../refined-set-2016/1xr9/1xr9_pocket.pdb
REMARK  377 active torsions:
REMARK  status: ('A' for Active; 'I' for Inactive)
REMARK    1  A    between atoms: _1  and  _3
REMARK    2  A    between atoms: _3  and  _4
REMARK    3  A    between atoms: _3  and  _6
REMARK    4  A    between atoms: _6  and  _7
REMARK    5  A    between atoms: _7  and  _8
REMARK    6  A    between atoms: _10  and  _12
REMARK    7  A    between atoms: _12  and  _13
REMARK    8  A    between atoms: _12  and  _15
REMARK    9  A    between atoms: _15  and  _16
REMARK   10  A    between atoms: _16  and  _17
REMARK   11  A    between atoms: _17  and  _18
REMARK   12  A    between atoms: _27  and  _29
REMARK   13  A    between atoms: _29  and  _30
REMARK   14  A    between atoms: _29  and  _32
REMARK   15  A    between atoms: _32  and  _33
REMARK   16  A    between atoms: _38  and  _39
REMARK   17  A    between atoms: _41  and  _43
REMARK   18  A    between atoms: _43  and  _44
REMARK   19  A    between atoms: _43  and  _46
REMARK   20  A    between atoms: _46  and  _47
REMARK   21  A    between atoms: _53  and  _55
REMARK   22  A    between atoms: _55  and  _56
REMARK   23  A    between atoms: _55  and  _58
REMARK   24  A    between atoms: _58  and  _59
REMARK   25  A    between atoms: _64  and  _65
REMARK   26  A    between atoms: _67  and  _69
REMARK   27  A    between atoms: _69  and  _70
REMARK   28  A    between atoms: _69  and  _72
REMARK   29  A    between atoms: _72  and  _73
REMARK   30  A    between atoms: _79  and  _81
REMARK   31  A    between atoms: _81  and  _82
REMARK   32  A    between atoms: _85  and  _87
REMARK   33  A    between atoms: _87  and  _88
REMARK   34  A    between atoms: _87  and  _90
REMARK   35  A    between atoms: _93  and  _95
REMARK   36  A    between atoms: _95  and  _96
REMARK   37  A    between atoms: _98  and  _100
REMARK   38  A    between atoms: _100  and  _101
REMARK   39  A    between atoms: _100  and  _103
REMARK   40  A    between atoms: _106  and  _108
REMARK   41  A    between atoms: _108  and  _109
REMARK   42  A    between atoms: _108  and  _111
REMARK   43  A    between atoms: _111  and  _112
REMARK   44  A    between atoms: _118  and  _120
REMARK   45  A    between atoms: _120  and  _121
REMARK   46  A    between atoms: _120  and  _123
REMARK   47  A    between atoms: _126  and  _128
REMARK   48  A    between atoms: _128  and  _129
REMARK   49  A    between atoms: _128  and  _131
REMARK   50  A    between atoms: _131  and  _132
REMARK   51  A    between atoms: _138  and  _140
REMARK   52  A    between atoms: _140  and  _141
REMARK   53  A    between atoms: _140  and  _143
REMARK   54  A    between atoms: _143  and  _144
REMARK   55  A    between atoms: _144  and  _145
REMARK   56  A    between atoms: _147  and  _149
REMARK   57  A    between atoms: _149  and  _150
REMARK   58  A    between atoms: _149  and  _152
REMARK   59  A    between atoms: _152  and  _153
REMARK   60  A    between atoms: _156  and  _158
REMARK   61  A    between atoms: _158  and  _159
REMARK   62  A    between atoms: _158  and  _161
REMARK   63  A    between atoms: _161  and  _162
REMARK   64  A    between atoms: _162  and  _163
REMARK   65  A    between atoms: _166  and  _168
REMARK   66  A    between atoms: _168  and  _169
REMARK   67  A    between atoms: _168  and  _171
REMARK   68  A    between atoms: _171  and  _172
REMARK   69  A    between atoms: _172  and  _173
REMARK   70  A    between atoms: _176  and  _178
REMARK   71  A    between atoms: _178  and  _179
REMARK   72  A    between atoms: _178  and  _181
REMARK   73  A    between atoms: _181  and  _182
REMARK   74  A    between atoms: _187  and  _188
REMARK   75  A    between atoms: _190  and  _192
REMARK   76  A    between atoms: _192  and  _193
REMARK   77  A    between atoms: _192  and  _195
REMARK   78  A    between atoms: _195  and  _196
REMARK   79  A    between atoms: _206  and  _208
REMARK   80  A    between atoms: _208  and  _209
REMARK   81  A    between atoms: _208  and  _211
REMARK   82  A    between atoms: _211  and  _212
REMARK   83  A    between atoms: _215  and  _217
REMARK   84  A    between atoms: _217  and  _218
REMARK   85  A    between atoms: _217  and  _220
REMARK   86  A    between atoms: _220  and  _221
REMARK   87  A    between atoms: _221  and  _222
REMARK   88  A    between atoms: _222  and  _223
REMARK   89  A    between atoms: _232  and  _234
REMARK   90  A    between atoms: _234  and  _235
REMARK   91  A    between atoms: _234  and  _237
REMARK   92  A    between atoms: _237  and  _238
REMARK   93  A    between atoms: _238  and  _239
REMARK   94  A    between atoms: _242  and  _244
REMARK   95  A    between atoms: _244  and  _245
REMARK   96  A    between atoms: _244  and  _247
REMARK   97  A    between atoms: _247  and  _248
REMARK   98  A    between atoms: _251  and  _253
REMARK   99  A    between atoms: _253  and  _254
REMARK  100  A    between atoms: _253  and  _256
REMARK  101  A    between atoms: _256  and  _257
REMARK  102  A    between atoms: _257  and  _258
REMARK  103  A    between atoms: _263  and  _265
REMARK  104  A    between atoms: _265  and  _266
REMARK  105  A    between atoms: _265  and  _268
REMARK  106  A    between atoms: _268  and  _269
REMARK  107  A    between atoms: _272  and  _274
REMARK  108  A    between atoms: _274  and  _275
REMARK  109  A    between atoms: _274  and  _277
REMARK  110  A    between atoms: _277  and  _278
REMARK  111  A    between atoms: _280  and  _282
REMARK  112  A    between atoms: _282  and  _283
REMARK  113  A    between atoms: _282  and  _285
REMARK  114  A    between atoms: _285  and  _286
REMARK  115  A    between atoms: _286  and  _287
REMARK  116  A    between atoms: _287  and  _288
REMARK  117  A    between atoms: _288  and  _289
REMARK  118  A    between atoms: _293  and  _295
REMARK  119  A    between atoms: _295  and  _296
REMARK  120  A    between atoms: _295  and  _298
REMARK  121  A    between atoms: _298  and  _299
REMARK  122  A    between atoms: _302  and  _304
REMARK  123  A    between atoms: _304  and  _305
REMARK  124  A    between atoms: _304  and  _307
REMARK  125  A    between atoms: _307  and  _308
REMARK  126  A    between atoms: _313  and  _315
REMARK  127  A    between atoms: _315  and  _316
REMARK  128  A    between atoms: _315  and  _318
REMARK  129  A    between atoms: _318  and  _319
REMARK  130  A    between atoms: _319  and  _320
REMARK  131  A    between atoms: _325  and  _327
REMARK  132  A    between atoms: _327  and  _328
REMARK  133  A    between atoms: _327  and  _330
REMARK  134  A    between atoms: _330  and  _331
REMARK  135  A    between atoms: _334  and  _336
REMARK  136  A    between atoms: _336  and  _337
REMARK  137  A    between atoms: _336  and  _339
REMARK  138  A    between atoms: _339  and  _340
REMARK  139  A    between atoms: _345  and  _346
REMARK  140  A    between atoms: _348  and  _350
REMARK  141  A    between atoms: _350  and  _351
REMARK  142  A    between atoms: _350  and  _353
REMARK  143  A    between atoms: _353  and  _354
REMARK  144  A    between atoms: _354  and  _355
REMARK  145  A    between atoms: _355  and  _356
REMARK  146  A    between atoms: _365  and  _367
REMARK  147  A    between atoms: _367  and  _368
REMARK  148  A    between atoms: _367  and  _370
REMARK  149  A    between atoms: _370  and  _371
REMARK  150  A    between atoms: _371  and  _372
REMARK  151  A    between atoms: _375  and  _377
REMARK  152  A    between atoms: _377  and  _378
REMARK  153  A    between atoms: _377  and  _380
REMARK  154  A    between atoms: _380  and  _381
REMARK  155  A    between atoms: _383  and  _385
REMARK  156  A    between atoms: _385  and  _386
REMARK  157  A    between atoms: _385  and  _388
REMARK  158  A    between atoms: _388  and  _389
REMARK  159  A    between atoms: _392  and  _394
REMARK  160  A    between atoms: _394  and  _395
REMARK  161  A    between atoms: _394  and  _397
REMARK  162  A    between atoms: _397  and  _398
REMARK  163  A    between atoms: _398  and  _399
REMARK  164  A    between atoms: _399  and  _400
REMARK  165  A    between atoms: _409  and  _411
REMARK  166  A    between atoms: _411  and  _412
REMARK  167  A    between atoms: _411  and  _414
REMARK  168  A    between atoms: _414  and  _415
REMARK  169  A    between atoms: _420  and  _422
REMARK  170  A    between atoms: _422  and  _423
REMARK  171  A    between atoms: _422  and  _425
REMARK  172  A    between atoms: _425  and  _426
REMARK  173  A    between atoms: _429  and  _431
REMARK  174  A    between atoms: _431  and  _432
REMARK  175  A    between atoms: _431  and  _434
REMARK  176  A    between atoms: _434  and  _435
REMARK  177  A    between atoms: _440  and  _441
REMARK  178  A    between atoms: _443  and  _445
REMARK  179  A    between atoms: _445  and  _446
REMARK  180  A    between atoms: _445  and  _448
REMARK  181  A    between atoms: _448  and  _449
REMARK  182  A    between atoms: _452  and  _454
REMARK  183  A    between atoms: _454  and  _455
REMARK  184  A    between atoms: _454  and  _457
REMARK  185  A    between atoms: _457  and  _458
REMARK  186  A    between atoms: _458  and  _459
REMARK  187  A    between atoms: _464  and  _466
REMARK  188  A    between atoms: _466  and  _467
REMARK  189  A    between atoms: _466  and  _469
REMARK  190  A    between atoms: _469  and  _470
REMARK  191  A    between atoms: _470  and  _471
REMARK  192  A    between atoms: _471  and  _472
REMARK  193  A    between atoms: _481  and  _483
REMARK  194  A    between atoms: _483  and  _484
REMARK  195  A    between atoms: _483  and  _486
REMARK  196  A    between atoms: _486  and  _487
REMARK  197  A    between atoms: _487  and  _488
REMARK  198  A    between atoms: _490  and  _492
REMARK  199  A    between atoms: _492  and  _493
REMARK  200  A    between atoms: _492  and  _495
REMARK  201  A    between atoms: _495  and  _496
REMARK  202  A    between atoms: _501  and  _502
REMARK  203  A    between atoms: _504  and  _506
REMARK  204  A    between atoms: _506  and  _507
REMARK  205  A    between atoms: _509  and  _511
REMARK  206  A    between atoms: _511  and  _512
REMARK  207  A    between atoms: _511  and  _514
REMARK  208  A    between atoms: _514  and  _515
REMARK  209  A    between atoms: _515  and  _869
REMARK  210  A    between atoms: _516  and  _518
REMARK  211  A    between atoms: _518  and  _519
REMARK  212  A    between atoms: _518  and  _521
REMARK  213  A    between atoms: _521  and  _522
REMARK  214  A    between atoms: _525  and  _527
REMARK  215  A    between atoms: _527  and  _528
REMARK  216  A    between atoms: _527  and  _530
REMARK  217  A    between atoms: _530  and  _531
REMARK  218  A    between atoms: _531  and  _532
REMARK  219  A    between atoms: _537  and  _539
REMARK  220  A    between atoms: _539  and  _540
REMARK  221  A    between atoms: _539  and  _542
REMARK  222  A    between atoms: _542  and  _543
REMARK  223  A    between atoms: _545  and  _547
REMARK  224  A    between atoms: _547  and  _548
REMARK  225  A    between atoms: _551  and  _553
REMARK  226  A    between atoms: _553  and  _554
REMARK  227  A    between atoms: _553  and  _556
REMARK  228  A    between atoms: _556  and  _557
REMARK  229  A    between atoms: _562  and  _563
REMARK  230  A    between atoms: _565  and  _567
REMARK  231  A    between atoms: _567  and  _568
REMARK  232  A    between atoms: _567  and  _570
REMARK  233  A    between atoms: _570  and  _571
REMARK  234  A    between atoms: _576  and  _577
REMARK  235  A    between atoms: _579  and  _581
REMARK  236  A    between atoms: _581  and  _582
REMARK  237  A    between atoms: _581  and  _584
REMARK  238  A    between atoms: _584  and  _585
REMARK  239  A    between atoms: _588  and  _590
REMARK  240  A    between atoms: _590  and  _591
REMARK  241  A    between atoms: _594  and  _596
REMARK  242  A    between atoms: _596  and  _597
REMARK  243  A    between atoms: _596  and  _599
REMARK  244  A    between atoms: _599  and  _600
REMARK  245  A    between atoms: _610  and  _612
REMARK  246  A    between atoms: _612  and  _613
REMARK  247  A    between atoms: _616  and  _618
REMARK  248  A    between atoms: _618  and  _619
REMARK  249  A    between atoms: _622  and  _624
REMARK  250  A    between atoms: _624  and  _625
REMARK  251  A    between atoms: _624  and  _627
REMARK  252  A    between atoms: _627  and  _628
REMARK  253  A    between atoms: _628  and  _629
REMARK  254  A    between atoms: _634  and  _636
REMARK  255  A    between atoms: _636  and  _637
REMARK  256  A    between atoms: _636  and  _639
REMARK  257  A    between atoms: _639  and  _640
REMARK  258  A    between atoms: _643  and  _645
REMARK  259  A    between atoms: _645  and  _646
REMARK  260  A    between atoms: _645  and  _648
REMARK  261  A    between atoms: _648  and  _649
REMARK  262  A    between atoms: _652  and  _654
REMARK  263  A    between atoms: _654  and  _655
REMARK  264  A    between atoms: _654  and  _657
REMARK  265  A    between atoms: _657  and  _658
REMARK  266  A    between atoms: _658  and  _659
REMARK  267  A    between atoms: _664  and  _666
REMARK  268  A    between atoms: _666  and  _667
REMARK  269  A    between atoms: _666  and  _669
REMARK  270  A    between atoms: _669  and  _670
REMARK  271  A    between atoms: _670  and  _671
REMARK  272  A    between atoms: _671  and  _672
REMARK  273  A    between atoms: _681  and  _683
REMARK  274  A    between atoms: _683  and  _684
REMARK  275  A    between atoms: _683  and  _686
REMARK  276  A    between atoms: _686  and  _687
REMARK  277  A    between atoms: _687  and  _688
REMARK  278  A    between atoms: _688  and  _689
REMARK  279  A    between atoms: _689  and  _690
REMARK  280  A    between atoms: _694  and  _696
REMARK  281  A    between atoms: _696  and  _697
REMARK  282  A    between atoms: _696  and  _699
REMARK  283  A    between atoms: _699  and  _700
REMARK  284  A    between atoms: _710  and  _712
REMARK  285  A    between atoms: _712  and  _713
REMARK  286  A    between atoms: _712  and  _715
REMARK  287  A    between atoms: _715  and  _716
REMARK  288  A    between atoms: _716  and  _717
REMARK  289  A    between atoms: _720  and  _722
REMARK  290  A    between atoms: _722  and  _723
REMARK  291  A    between atoms: _726  and  _728
REMARK  292  A    between atoms: _728  and  _729
REMARK  293  A    between atoms: _732  and  _734
REMARK  294  A    between atoms: _734  and  _735
REMARK  295  A    between atoms: _734  and  _737
REMARK  296  A    between atoms: _737  and  _738
REMARK  297  A    between atoms: _738  and  _739
REMARK  298  A    between atoms: _739  and  _740
REMARK  299  A    between atoms: _749  and  _751
REMARK  300  A    between atoms: _751  and  _752
REMARK  301  A    between atoms: _751  and  _754
REMARK  302  A    between atoms: _754  and  _755
REMARK  303  A    between atoms: _755  and  _756
REMARK  304  A    between atoms: _759  and  _761
REMARK  305  A    between atoms: _761  and  _762
REMARK  306  A    between atoms: _765  and  _767
REMARK  307  A    between atoms: _767  and  _768
REMARK  308  A    between atoms: _767  and  _770
REMARK  309  A    between atoms: _770  and  _771
REMARK  310  A    between atoms: _771  and  _772
REMARK  311  A    between atoms: _775  and  _777
REMARK  312  A    between atoms: _777  and  _778
REMARK  313  A    between atoms: _777  and  _780
REMARK  314  A    between atoms: _780  and  _781
REMARK  315  A    between atoms: _781  and  _782
REMARK  316  A    between atoms: _787  and  _789
REMARK  317  A    between atoms: _789  and  _790
REMARK  318  A    between atoms: _789  and  _792
REMARK  319  A    between atoms: _792  and  _793
REMARK  320  A    between atoms: _803  and  _805
REMARK  321  A    between atoms: _805  and  _806
REMARK  322  A    between atoms: _805  and  _808
REMARK  323  A    between atoms: _808  and  _809
REMARK  324  A    between atoms: _809  and  _810
REMARK  325  A    between atoms: _810  and  _811
REMARK  326  A    between atoms: _820  and  _822
REMARK  327  A    between atoms: _822  and  _823
REMARK  328  A    between atoms: _826  and  _828
REMARK  329  A    between atoms: _828  and  _829
REMARK  330  A    between atoms: _828  and  _831
REMARK  331  A    between atoms: _831  and  _832
REMARK  332  A    between atoms: _837  and  _838
REMARK  333  A    between atoms: _840  and  _842
REMARK  334  A    between atoms: _842  and  _843
REMARK  335  A    between atoms: _842  and  _845
REMARK  336  A    between atoms: _845  and  _846
REMARK  337  A    between atoms: _849  and  _851
REMARK  338  A    between atoms: _851  and  _852
REMARK  339  A    between atoms: _854  and  _856
REMARK  340  A    between atoms: _856  and  _857
REMARK  341  A    between atoms: _856  and  _859
REMARK  342  A    between atoms: _859  and  _860
REMARK  343  A    between atoms: _863  and  _865
REMARK  344  A    between atoms: _865  and  _866
REMARK  345  A    between atoms: _865  and  _868
REMARK  346  A    between atoms: _868  and  _869
REMARK  347  A    between atoms: _870  and  _872
REMARK  348  A    between atoms: _872  and  _873
REMARK  349  A    between atoms: _872  and  _875
REMARK  350  A    between atoms: _878  and  _880
REMARK  351  A    between atoms: _880  and  _881
REMARK  352  A    between atoms: _880  and  _883
REMARK  353  A    between atoms: _883  and  _884
REMARK  354  A    between atoms: _884  and  _885
REMARK  355  A    between atoms: _888  and  _890
REMARK  356  A    between atoms: _890  and  _891
REMARK  357  A    between atoms: _890  and  _893
REMARK  358  A    between atoms: _893  and  _894
REMARK  359  A    between atoms: _904  and  _906
REMARK  360  A    between atoms: _906  and  _907
REMARK  361  A    between atoms: _906  and  _909
REMARK  362  A    between atoms: _909  and  _910
REMARK  363  A    between atoms: _913  and  _915
REMARK  364  A    between atoms: _915  and  _916
REMARK  365  A    between atoms: _915  and  _918
REMARK  366  A    between atoms: _918  and  _919
REMARK  367  A    between atoms: _919  and  _920
REMARK  368  A    between atoms: _920  and  _921
REMARK  369  A    between atoms: _930  and  _932
REMARK  370  A    between atoms: _932  and  _933
REMARK  371  A    between atoms: _932  and  _935
REMARK  372  A    between atoms: _935  and  _936
REMARK  373  A    between atoms: _941  and  _942
REMARK  374  A    between atoms: _944  and  _946
REMARK  375  A    between atoms: _946  and  _947
REMARK  376  A    between atoms: _946  and  _949
REMARK  377  A    between atoms: _949  and  _950
REMARK                            x       y       z     vdW  Elec       q    Type
REMARK                         _______ _______ _______ _____ _____    ______ ____
ROOT
ATOM      1  CB  PHE A   1      17.299  37.589  33.622  0.00  0.00    +0.051 C 
ENDROOT
BRANCH   1   2
ATOM      2  CG  PHE A   1      18.421  38.326  34.362  0.00  0.00    -0.020 A 
ATOM      3  CD2 PHE A   1      18.197  38.875  35.626  0.00  0.00    -0.004 A 
ATOM      4  CE2 PHE A   1      19.230  39.550  36.322  0.00  0.00    -0.000 A 
ATOM      5  CZ  PHE A   1      20.494  39.705  35.717  0.00  0.00    -0.000 A 
ATOM      6  CE1 PHE A   1      20.734  39.170  34.432  0.00  0.00    -0.000 A 
ATOM      7  CD1 PHE A   1      19.704  38.478  33.770  0.00  0.00    -0.004 A 
ENDBRANCH   1   2
BRANCH   1   8
ATOM      8  CA  PHE A   1      16.442  38.484  32.723  0.00  0.00    +0.137 C 
BRANCH   8   9
ATOM      9  N   PHE A   1      15.493  37.656  31.957  0.00  0.00    -0.239 NA
ATOM     10  H   PHE A   1      15.868  37.002  31.240  0.00  0.00    +0.142 HD
ENDBRANCH   8   9
BRANCH   8  11
ATOM     11  C   PHE A   1      17.351  39.188  31.702  0.00  0.00    +0.224 C 
ATOM     12  O   PHE A   1      17.768  38.573  30.719  0.00  0.00    -0.287 OA
ENDBRANCH   8  11
ENDBRANCH   1   8
TORSDOF 4
REMARK  Name = ../refined-set-2016/1xr9/1xr9_pocket.pdb
REMARK  377 active torsions:
REMARK  status: ('A' for Active; 'I' for Inactive)
REMARK    1  A    between atoms: _1  and  _3
REMARK    2  A    between atoms: _3  and  _4
REMARK    3  A    between atoms: _3  and  _6
REMARK    4  A    between atoms: _6  and  _7
REMARK    5  A    between atoms: _7  and  _8
REMARK    6  A    between atoms: _10  and  _12
REMARK    7  A    between atoms: _12  and  _13
REMARK    8  A    between atoms: _12  and  _15
REMARK    9  A    between atoms: _15  and  _16
REMARK   10  A    between atoms: _16  and  _17
REMARK   11  A    between atoms: _17  and  _18
REMARK   12  A    between atoms: _27  and  _29
REMARK   13  A    between atoms: _29  and  _30
REMARK   14  A    between atoms: _29  and  _32
REMARK   15  A    between atoms: _32  and  _33
REMARK   16  A    between atoms: _38  and  _39
REMARK   17  A    between atoms: _41  and  _43
REMARK   18  A    between atoms: _43  and  _44
REMARK   19  A    between atoms: _43  and  _46
REMARK   20  A    between atoms: _46  and  _47
REMARK   21  A    between atoms: _53  and  _55
REMARK   22  A    between atoms: _55  and  _56
REMARK   23  A    between atoms: _55  and  _58
REMARK   24  A    between atoms: _58  and  _59
REMARK   25  A    between atoms: _64  and  _65
REMARK   26  A    between atoms: _67  and  _69
REMARK   27  A    between atoms: _69  and  _70
REMARK   28  A    between atoms: _69  and  _72
REMARK   29  A    between atoms: _72  and  _73
REMARK   30  A    between atoms: _79  and  _81
REMARK   31  A    between atoms: _81  and  _82
REMARK   32  A    between atoms: _85  and  _87
REMARK   33  A    between atoms: _87  and  _88
REMARK   34  A    between atoms: _87  and  _90
REMARK   35  A    between atoms: _93  and  _95
REMARK   36  A    between atoms: _95  and  _96
REMARK   37  A    between atoms: _98  and  _100
REMARK   38  A    between atoms: _100  and  _101
REMARK   39  A    between atoms: _100  and  _103
REMARK   40  A    between atoms: _106  and  _108
REMARK   41  A    between atoms: _108  and  _109
REMARK   42  A    between atoms: _108  and  _111
REMARK   43  A    between atoms: _111  and  _112
REMARK   44  A    between atoms: _118  and  _120
REMARK   45  A    between atoms: _120  and  _121
REMARK   46  A    between atoms: _120  and  _123
REMARK   47  A    between atoms: _126  and  _128
REMARK   48  A    between atoms: _128  and  _129
REMARK   49  A    between atoms: _128  and  _131
REMARK   50  A    between atoms: _131  and  _132
REMARK   51  A    between atoms: _138  and  _140
REMARK   52  A    between atoms: _140  and  _141
REMARK   53  A    between atoms: _140  and  _143
REMARK   54  A    between atoms: _143  and  _144
REMARK   55  A    between atoms: _144  and  _145
REMARK   56  A    between atoms: _147  and  _149
REMARK   57  A    between atoms: _149  and  _150
REMARK   58  A    between atoms: _149  and  _152
REMARK   59  A    between atoms: _152  and  _153
REMARK   60  A    between atoms: _156  and  _158
REMARK   61  A    between atoms: _158  and  _159
REMARK   62  A    between atoms: _158  and  _161
REMARK   63  A    between atoms: _161  and  _162
REMARK   64  A    between atoms: _162  and  _163
REMARK   65  A    between atoms: _166  and  _168
REMARK   66  A    between atoms: _168  and  _169
REMARK   67  A    between atoms: _168  and  _171
REMARK   68  A    between atoms: _171  and  _172
REMARK   69  A    between atoms: _172  and  _173
REMARK   70  A    between atoms: _176  and  _178
REMARK   71  A    between atoms: _178  and  _179
REMARK   72  A    between atoms: _178  and  _181
REMARK   73  A    between atoms: _181  and  _182
REMARK   74  A    between atoms: _187  and  _188
REMARK   75  A    between atoms: _190  and  _192
REMARK   76  A    between atoms: _192  and  _193
REMARK   77  A    between atoms: _192  and  _195
REMARK   78  A    between atoms: _195  and  _196
REMARK   79  A    between atoms: _206  and  _208
REMARK   80  A    between atoms: _208  and  _209
REMARK   81  A    between atoms: _208  and  _211
REMARK   82  A    between atoms: _211  and  _212
REMARK   83  A    between atoms: _215  and  _217
REMARK   84  A    between atoms: _217  and  _218
REMARK   85  A    between atoms: _217  and  _220
REMARK   86  A    between atoms: _220  and  _221
REMARK   87  A    between atoms: _221  and  _222
REMARK   88  A    between atoms: _222  and  _223
REMARK   89  A    between atoms: _232  and  _234
REMARK   90  A    between atoms: _234  and  _235
REMARK   91  A    between atoms: _234  and  _237
REMARK   92  A    between atoms: _237  and  _238
REMARK   93  A    between atoms: _238  and  _239
REMARK   94  A    between atoms: _242  and  _244
REMARK   95  A    between atoms: _244  and  _245
REMARK   96  A    between atoms: _244  and  _247
REMARK   97  A    between atoms: _247  and  _248
REMARK   98  A    between atoms: _251  and  _253
REMARK   99  A    between atoms: _253  and  _254
REMARK  100  A    between atoms: _253  and  _256
REMARK  101  A    between atoms: _256  and  _257
REMARK  102  A    between atoms: _257  and  _258
REMARK  103  A    between atoms: _263  and  _265
REMARK  104  A    between atoms: _265  and  _266
REMARK  105  A    between atoms: _265  and  _268
REMARK  106  A    between atoms: _268  and  _269
REMARK  107  A    between atoms: _272  and  _274
REMARK  108  A    between atoms: _274  and  _275
REMARK  109  A    between atoms: _274  and  _277
REMARK  110  A    between atoms: _277  and  _278
REMARK  111  A    between atoms: _280  and  _282
REMARK  112  A    between atoms: _282  and  _283
REMARK  113  A    between atoms: _282  and  _285
REMARK  114  A    between atoms: _285  and  _286
REMARK  115  A    between atoms: _286  and  _287
REMARK  116  A    between atoms: _287  and  _288
REMARK  117  A    between atoms: _288  and  _289
REMARK  118  A    between atoms: _293  and  _295
REMARK  119  A    between atoms: _295  and  _296
REMARK  120  A    between atoms: _295  and  _298
REMARK  121  A    between atoms: _298  and  _299
REMARK  122  A    between atoms: _302  and  _304
REMARK  123  A    between atoms: _304  and  _305
REMARK  124  A    between atoms: _304  and  _307
REMARK  125  A    between atoms: _307  and  _308
REMARK  126  A    between atoms: _313  and  _315
REMARK  127  A    between atoms: _315  and  _316
REMARK  128  A    between atoms: _315  and  _318
REMARK  129  A    between atoms: _318  and  _319
REMARK  130  A    between atoms: _319  and  _320
REMARK  131  A    between atoms: _325  and  _327
REMARK  132  A    between atoms: _327  and  _328
REMARK  133  A    between atoms: _327  and  _330
REMARK  134  A    between atoms: _330  and  _331
REMARK  135  A    between atoms: _334  and  _336
REMARK  136  A    between atoms: _336  and  _337
REMARK  137  A    between atoms: _336  and  _339
REMARK  138  A    between atoms: _339  and  _340
REMARK  139  A    between atoms: _345  and  _346
REMARK  140  A    between atoms: _348  and  _350
REMARK  141  A    between atoms: _350  and  _351
REMARK  142  A    between atoms: _350  and  _353
REMARK  143  A    between atoms: _353  and  _354
REMARK  144  A    between atoms: _354  and  _355
REMARK  145  A    between atoms: _355  and  _356
REMARK  146  A    between atoms: _365  and  _367
REMARK  147  A    between atoms: _367  and  _368
REMARK  148  A    between atoms: _367  and  _370
REMARK  149  A    between atoms: _370  and  _371
REMARK  150  A    between atoms: _371  and  _372
REMARK  151  A    between atoms: _375  and  _377
REMARK  152  A    between atoms: _377  and  _378
REMARK  153  A    between atoms: _377  and  _380
REMARK  154  A    between atoms: _380  and  _381
REMARK  155  A    between atoms: _383  and  _385
REMARK  156  A    between atoms: _385  and  _386
REMARK  157  A    between atoms: _385  and  _388
REMARK  158  A    between atoms: _388  and  _389
REMARK  159  A    between atoms: _392  and  _394
REMARK  160  A    between atoms: _394  and  _395
REMARK  161  A    between atoms: _394  and  _397
REMARK  162  A    between atoms: _397  and  _398
REMARK  163  A    between atoms: _398  and  _399
REMARK  164  A    between atoms: _399  and  _400
REMARK  165  A    between atoms: _409  and  _411
REMARK  166  A    between atoms: _411  and  _412
REMARK  167  A    between atoms: _411  and  _414
REMARK  168  A    between atoms: _414  and  _415
REMARK  169  A    between atoms: _420  and  _422
REMARK  170  A    between atoms: _422  and  _423
REMARK  171  A    between atoms: _422  and  _425
REMARK  172  A    between atoms: _425  and  _426
REMARK  173  A    between atoms: _429  and  _431
REMARK  174  A    between atoms: _431  and  _432
REMARK  175  A    between atoms: _431  and  _434
REMARK  176  A    between atoms: _434  and  _435
REMARK  177  A    between atoms: _440  and  _441
REMARK  178  A    between atoms: _443  and  _445
REMARK  179  A    between atoms: _445  and  _446
REMARK  180  A    between atoms: _445  and  _448
REMARK  181  A    between atoms: _448  and  _449
REMARK  182  A    between atoms: _452  and  _454
REMARK  183  A    between atoms: _454  and  _455
REMARK  184  A    between atoms: _454  and  _457
REMARK  185  A    between atoms: _457  and  _458
REMARK  186  A    between atoms: _458  and  _459
REMARK  187  A    between atoms: _464  and  _466
REMARK  188  A    between atoms: _466  and  _467
REMARK  189  A    between atoms: _466  and  _469
REMARK  190  A    between atoms: _469  and  _470
REMARK  191  A    between atoms: _470  and  _471
REMARK  192  A    between atoms: _471  and  _472
REMARK  193  A    between atoms: _481  and  _483
REMARK  194  A    between atoms: _483  and  _484
REMARK  195  A    between atoms: _483  and  _486
REMARK  196  A    between atoms: _486  and  _487
REMARK  197  A    between atoms: _487  and  _488
REMARK  198  A    between atoms: _490  and  _492
REMARK  199  A    between atoms: _492  and  _493
REMARK  200  A    between atoms: _492  and  _495
REMARK  201  A    between atoms: _495  and  _496
REMARK  202  A    between atoms: _501  and  _502
REMARK  203  A    between atoms: _504  and  _506
REMARK  204  A    between atoms: _506  and  _507
REMARK  205  A    between atoms: _509  and  _511
REMARK  206  A    between atoms: _511  and  _512
REMARK  207  A    between atoms: _511  and  _514
REMARK  208  A    between atoms: _514  and  _515
REMARK  209  A    between atoms: _515  and  _869
REMARK  210  A    between atoms: _516  and  _518
REMARK  211  A    between atoms: _518  and  _519
REMARK  212  A    between atoms: _518  and  _521
REMARK  213  A    between atoms: _521  and  _522
REMARK  214  A    between atoms: _525  and  _527
REMARK  215  A    between atoms: _527  and  _528
REMARK  216  A    between atoms: _527  and  _530
REMARK  217  A    between atoms: _530  and  _531
REMARK  218  A    between atoms: _531  and  _532
REMARK  219  A    between atoms: _537  and  _539
REMARK  220  A    between atoms: _539  and  _540
REMARK  221  A    between atoms: _539  and  _542
REMARK  222  A    between atoms: _542  and  _543
REMARK  223  A    between atoms: _545  and  _547
REMARK  224  A    between atoms: _547  and  _548
REMARK  225  A    between atoms: _551  and  _553
REMARK  226  A    between atoms: _553  and  _554
REMARK  227  A    between atoms: _553  and  _556
REMARK  228  A    between atoms: _556  and  _557
REMARK  229  A    between atoms: _562  and  _563
REMARK  230  A    between atoms: _565  and  _567
REMARK  231  A    between atoms: _567  and  _568
REMARK  232  A    between atoms: _567  and  _570
REMARK  233  A    between atoms: _570  and  _571
REMARK  234  A    between atoms: _576  and  _577
REMARK  235  A    between atoms: _579  and  _581
REMARK  236  A    between atoms: _581  and  _582
REMARK  237  A    between atoms: _581  and  _584
REMARK  238  A    between atoms: _584  and  _585
REMARK  239  A    between atoms: _588  and  _590
REMARK  240  A    between atoms: _590  and  _591
REMARK  241  A    between atoms: _594  and  _596
REMARK  242  A    between atoms: _596  and  _597
REMARK  243  A    between atoms: _596  and  _599
REMARK  244  A    between atoms: _599  and  _600
REMARK  245  A    between atoms: _610  and  _612
REMARK  246  A    between atoms: _612  and  _613
REMARK  247  A    between atoms: _616  and  _618
REMARK  248  A    between atoms: _618  and  _619
REMARK  249  A    between atoms: _622  and  _624
REMARK  250  A    between atoms: _624  and  _625
REMARK  251  A    between atoms: _624  and  _627
REMARK  252  A    between atoms: _627  and  _628
REMARK  253  A    between atoms: _628  and  _629
REMARK  254  A    between atoms: _634  and  _636
REMARK  255  A    between atoms: _636  and  _637
REMARK  256  A    between atoms: _636  and  _639
REMARK  257  A    between atoms: _639  and  _640
REMARK  258  A    between atoms: _643  and  _645
REMARK  259  A    between atoms: _645  and  _646
REMARK  260  A    between atoms: _645  and  _648
REMARK  261  A    between atoms: _648  and  _649
REMARK  262  A    between atoms: _652  and  _654
REMARK  263  A    between atoms: _654  and  _655
REMARK  264  A    between atoms: _654  and  _657
REMARK  265  A    between atoms: _657  and  _658
REMARK  266  A    between atoms: _658  and  _659
REMARK  267  A    between atoms: _664  and  _666
REMARK  268  A    between atoms: _666  and  _667
REMARK  269  A    between atoms: _666  and  _669
REMARK  270  A    between atoms: _669  and  _670
REMARK  271  A    between atoms: _670  and  _671
REMARK  272  A    between atoms: _671  and  _672
REMARK  273  A    between atoms: _681  and  _683
REMARK  274  A    between atoms: _683  and  _684
REMARK  275  A    between atoms: _683  and  _686
REMARK  276  A    between atoms: _686  and  _687
REMARK  277  A    between atoms: _687  and  _688
REMARK  278  A    between atoms: _688  and  _689
REMARK  279  A    between atoms: _689  and  _690
REMARK  280  A    between atoms: _694  and  _696
REMARK  281  A    between atoms: _696  and  _697
REMARK  282  A    between atoms: _696  and  _699
REMARK  283  A    between atoms: _699  and  _700
REMARK  284  A    between atoms: _710  and  _712
REMARK  285  A    between atoms: _712  and  _713
REMARK  286  A    between atoms: _712  and  _715
REMARK  287  A    between atoms: _715  and  _716
REMARK  288  A    between atoms: _716  and  _717
REMARK  289  A    between atoms: _720  and  _722
REMARK  290  A    between atoms: _722  and  _723
REMARK  291  A    between atoms: _726  and  _728
REMARK  292  A    between atoms: _728  and  _729
REMARK  293  A    between atoms: _732  and  _734
REMARK  294  A    between atoms: _734  and  _735
REMARK  295  A    between atoms: _734  and  _737
REMARK  296  A    between atoms: _737  and  _738
REMARK  297  A    between atoms: _738  and  _739
REMARK  298  A    between atoms: _739  and  _740
REMARK  299  A    between atoms: _749  and  _751
REMARK  300  A    between atoms: _751  and  _752
REMARK  301  A    between atoms: _751  and  _754
REMARK  302  A    between atoms: _754  and  _755
REMARK  303  A    between atoms: _755  and  _756
REMARK  304  A    between atoms: _759  and  _761
REMARK  305  A    between atoms: _761  and  _762
REMARK  306  A    between atoms: _765  and  _767
REMARK  307  A    between atoms: _767  and  _768
REMARK  308  A    between atoms: _767  and  _770
REMARK  309  A    between atoms: _770  and  _771
REMARK  310  A    between atoms: _771  and  _772
REMARK  311  A    between atoms: _775  and  _777
REMARK  312  A    between atoms: _777  and  _778
REMARK  313  A    between atoms: _777  and  _780
REMARK  314  A    between atoms: _780  and  _781
REMARK  315  A    between atoms: _781  and  _782
REMARK  316  A    between atoms: _787  and  _789
REMARK  317  A    between atoms: _789  and  _790
REMARK  318  A    between atoms: _789  and  _792
REMARK  319  A    between atoms: _792  and  _793
REMARK  320  A    between atoms: _803  and  _805
REMARK  321  A    between atoms: _805  and  _806
REMARK  322  A    between atoms: _805  and  _808
REMARK  323  A    between atoms: _808  and  _809
REMARK  324  A    between atoms: _809  and  _810
REMARK  325  A    between atoms: _810  and  _811
REMARK  326  A    between atoms: _820  and  _822
REMARK  327  A    between atoms: _822  and  _823
REMARK  328  A    between atoms: _826  and  _828
REMARK  329  A    between atoms: _828  and  _829
REMARK  330  A    between atoms: _828  and  _831
REMARK  331  A    between atoms: _831  and  _832
REMARK  332  A    between atoms: _837  and  _838
REMARK  333  A    between atoms: _840  and  _842
REMARK  334  A    between atoms: _842  and  _843
REMARK  335  A    between atoms: _842  and  _845
REMARK  336  A    between atoms: _845  and  _846
REMARK  337  A    between atoms: _849  and  _851
REMARK  338  A    between atoms: _851  and  _852
REMARK  339  A    between atoms: _854  and  _856
REMARK  340  A    between atoms: _856  and  _857
REMARK  341  A    between atoms: _856  and  _859
REMARK  342  A    between atoms: _859  and  _860
REMARK  343  A    between atoms: _863  and  _865
REMARK  344  A    between atoms: _865  and  _866
REMARK  345  A    between atoms: _865  and  _868
REMARK  346  A    between atoms: _868  and  _869
REMARK  347  A    between atoms: _870  and  _872
REMARK  348  A    between atoms: _872  and  _873
REMARK  349  A    between atoms: _872  and  _875
REMARK  350  A    between atoms: _878  and  _880
REMARK  351  A    between atoms: _880  and  _881
REMARK  352  A    between atoms: _880  and  _883
REMARK  353  A    between atoms: _883  and  _884
REMARK  354  A    between atoms: _884  and  _885
REMARK  355  A    between atoms: _888  and  _890
REMARK  356  A    between atoms: _890  and  _891
REMARK  357  A    between atoms: _890  and  _893
REMARK  358  A    between atoms: _893  and  _894
REMARK  359  A    between atoms: _904  and  _906
REMARK  360  A    between atoms: _906  and  _907
REMARK  361  A    between atoms: _906  and  _909
REMARK  362  A    between atoms: _909  and  _910
REMARK  363  A    between atoms: _913  and  _915
REMARK  364  A    between atoms: _915  and  _916
REMARK  365  A    between atoms: _915  and  _918
REMARK  366  A    between atoms: _918  and  _919
REMARK  367  A    between atoms: _919  and  _920
REMARK  368  A    between atoms: _920  and  _921
REMARK  369  A    between atoms: _930  and  _932
REMARK  370  A    between atoms: _932  and  _933
REMARK  371  A    between atoms: _932  and  _935
REMARK  372  A    between atoms: _935  and  _936
REMARK  373  A    between atoms: _941  and  _942
REMARK  374  A    between atoms: _944  and  _946
REMARK  375  A    between atoms: _946  and  _947
REMARK  376  A    between atoms: _946  and  _949
REMARK  377  A    between atoms: _949  and  _950
REMARK                            x       y       z     vdW  Elec       q    Type
REMARK                         _______ _______ _______ _____ _____    ______ ____
ROOT
ATOM      1  CA  MET A   1      14.109  37.730  36.526  0.00  0.00    +0.134 C 
ENDROOT
BRANCH   1   2
ATOM      2  N   MET A   1      14.907  38.653  37.320  0.00  0.00    -0.239 NA
ATOM      3  H   MET A   1      15.360  38.327  38.198  0.00  0.00    +0.142 HD
ENDBRANCH   1   2
BRANCH   1   4
ATOM      4  C   MET A   1      12.675  38.215  36.601  0.00  0.00    +0.224 C 
ATOM      5  O   MET A   1      12.142  38.485  37.696  0.00  0.00    -0.287 OA
ENDBRANCH   1   4
BRANCH   1   6
ATOM      6  CB  MET A   1      14.224  36.313  37.048  0.00  0.00    +0.037 C 
BRANCH   6   7
ATOM      7  CG  MET A   1      13.599  35.290  36.112  0.00  0.00    +0.059 C 
BRANCH   7   8
ATOM      8  SD  MET A   1      14.503  35.203  34.530  0.00  0.00    -0.139 S 
ATOM      9  CE  MET A   1      15.945  34.374  35.092  0.00  0.00    +0.069 C 
ENDBRANCH   7   8
ENDBRANCH   6   7
ENDBRANCH   1   6
TORSDOF 5
REMARK  Name = ../refined-set-2016/1xr9/1xr9_pocket.pdb
REMARK  377 active torsions:
REMARK  status: ('A' for Active; 'I' for Inactive)
REMARK    1  A    between atoms: _1  and  _3
REMARK    2  A    between atoms: _3  and  _4
REMARK    3  A    between atoms: _3  and  _6
REMARK    4  A    between atoms: _6  and  _7
REMARK    5  A    between atoms: _7  and  _8
REMARK    6  A    between atoms: _10  and  _12
REMARK    7  A    between atoms: _12  and  _13
REMARK    8  A    between atoms: _12  and  _15
REMARK    9  A    between atoms: _15  and  _16
REMARK   10  A    between atoms: _16  and  _17
REMARK   11  A    between atoms: _17  and  _18
REMARK   12  A    between atoms: _27  and  _29
REMARK   13  A    between atoms: _29  and  _30
REMARK   14  A    between atoms: _29  and  _32
REMARK   15  A    between atoms: _32  and  _33
REMARK   16  A    between atoms: _38  and  _39
REMARK   17  A    between atoms: _41  and  _43
REMARK   18  A    between atoms: _43  and  _44
REMARK   19  A    between atoms: _43  and  _46
REMARK   20  A    between atoms: _46  and  _47
REMARK   21  A    between atoms: _53  and  _55
REMARK   22  A    between atoms: _55  and  _56
REMARK   23  A    between atoms: _55  and  _58
REMARK   24  A    between atoms: _58  and  _59
REMARK   25  A    between atoms: _64  and  _65
REMARK   26  A    between atoms: _67  and  _69
REMARK   27  A    between atoms: _69  and  _70
REMARK   28  A    between atoms: _69  and  _72
REMARK   29  A    between atoms: _72  and  _73
REMARK   30  A    between atoms: _79  and  _81
REMARK   31  A    between atoms: _81  and  _82
REMARK   32  A    between atoms: _85  and  _87
REMARK   33  A    between atoms: _87  and  _88
REMARK   34  A    between atoms: _87  and  _90
REMARK   35  A    between atoms: _93  and  _95
REMARK   36  A    between atoms: _95  and  _96
REMARK   37  A    between atoms: _98  and  _100
REMARK   38  A    between atoms: _100  and  _101
REMARK   39  A    between atoms: _100  and  _103
REMARK   40  A    between atoms: _106  and  _108
REMARK   41  A    between atoms: _108  and  _109
REMARK   42  A    between atoms: _108  and  _111
REMARK   43  A    between atoms: _111  and  _112
REMARK   44  A    between atoms: _118  and  _120
REMARK   45  A    between atoms: _120  and  _121
REMARK   46  A    between atoms: _120  and  _123
REMARK   47  A    between atoms: _126  and  _128
REMARK   48  A    between atoms: _128  and  _129
REMARK   49  A    between atoms: _128  and  _131
REMARK   50  A    between atoms: _131  and  _132
REMARK   51  A    between atoms: _138  and  _140
REMARK   52  A    between atoms: _140  and  _141
REMARK   53  A    between atoms: _140  and  _143
REMARK   54  A    between atoms: _143  and  _144
REMARK   55  A    between atoms: _144  and  _145
REMARK   56  A    between atoms: _147  and  _149
REMARK   57  A    between atoms: _149  and  _150
REMARK   58  A    between atoms: _149  and  _152
REMARK   59  A    between atoms: _152  and  _153
REMARK   60  A    between atoms: _156  and  _158
REMARK   61  A    between atoms: _158  and  _159
REMARK   62  A    between atoms: _158  and  _161
REMARK   63  A    between atoms: _161  and  _162
REMARK   64  A    between atoms: _162  and  _163
REMARK   65  A    between atoms: _166  and  _168
REMARK   66  A    between atoms: _168  and  _169
REMARK   67  A    between atoms: _168  and  _171
REMARK   68  A    between atoms: _171  and  _172
REMARK   69  A    between atoms: _172  and  _173
REMARK   70  A    between atoms: _176  and  _178
REMARK   71  A    between atoms: _178  and  _179
REMARK   72  A    between atoms: _178  and  _181
REMARK   73  A    between atoms: _181  and  _182
REMARK   74  A    between atoms: _187  and  _188
REMARK   75  A    between atoms: _190  and  _192
REMARK   76  A    between atoms: _192  and  _193
REMARK   77  A    between atoms: _192  and  _195
REMARK   78  A    between atoms: _195  and  _196
REMARK   79  A    between atoms: _206  and  _208
REMARK   80  A    between atoms: _208  and  _209
REMARK   81  A    between atoms: _208  and  _211
REMARK   82  A    between atoms: _211  and  _212
REMARK   83  A    between atoms: _215  and  _217
REMARK   84  A    between atoms: _217  and  _218
REMARK   85  A    between atoms: _217  and  _220
REMARK   86  A    between atoms: _220  and  _221
REMARK   87  A    between atoms: _221  and  _222
REMARK   88  A    between atoms: _222  and  _223
REMARK   89  A    between atoms: _232  and  _234
REMARK   90  A    between atoms: _234  and  _235
REMARK   91  A    between atoms: _234  and  _237
REMARK   92  A    between atoms: _237  and  _238
REMARK   93  A    between atoms: _238  and  _239
REMARK   94  A    between atoms: _242  and  _244
REMARK   95  A    between atoms: _244  and  _245
REMARK   96  A    between atoms: _244  and  _247
REMARK   97  A    between atoms: _247  and  _248
REMARK   98  A    between atoms: _251  and  _253
REMARK   99  A    between atoms: _253  and  _254
REMARK  100  A    between atoms: _253  and  _256
REMARK  101  A    between atoms: _256  and  _257
REMARK  102  A    between atoms: _257  and  _258
REMARK  103  A    between atoms: _263  and  _265
REMARK  104  A    between atoms: _265  and  _266
REMARK  105  A    between atoms: _265  and  _268
REMARK  106  A    between atoms: _268  and  _269
REMARK  107  A    between atoms: _272  and  _274
REMARK  108  A    between atoms: _274  and  _275
REMARK  109  A    between atoms: _274  and  _277
REMARK  110  A    between atoms: _277  and  _278
REMARK  111  A    between atoms: _280  and  _282
REMARK  112  A    between atoms: _282  and  _283
REMARK  113  A    between atoms: _282  and  _285
REMARK  114  A    between atoms: _285  and  _286
REMARK  115  A    between atoms: _286  and  _287
REMARK  116  A    between atoms: _287  and  _288
REMARK  117  A    between atoms: _288  and  _289
REMARK  118  A    between atoms: _293  and  _295
REMARK  119  A    between atoms: _295  and  _296
REMARK  120  A    between atoms: _295  and  _298
REMARK  121  A    between atoms: _298  and  _299
REMARK  122  A    between atoms: _302  and  _304
REMARK  123  A    between atoms: _304  and  _305
REMARK  124  A    between atoms: _304  and  _307
REMARK  125  A    between atoms: _307  and  _308
REMARK  126  A    between atoms: _313  and  _315
REMARK  127  A    between atoms: _315  and  _316
REMARK  128  A    between atoms: _315  and  _318
REMARK  129  A    between atoms: _318  and  _319
REMARK  130  A    between atoms: _319  and  _320
REMARK  131  A    between atoms: _325  and  _327
REMARK  132  A    between atoms: _327  and  _328
REMARK  133  A    between atoms: _327  and  _330
REMARK  134  A    between atoms: _330  and  _331
REMARK  135  A    between atoms: _334  and  _336
REMARK  136  A    between atoms: _336  and  _337
REMARK  137  A    between atoms: _336  and  _339
REMARK  138  A    between atoms: _339  and  _340
REMARK  139  A    between atoms: _345  and  _346
REMARK  140  A    between atoms: _348  and  _350
REMARK  141  A    between atoms: _350  and  _351
REMARK  142  A    between atoms: _350  and  _353
REMARK  143  A    between atoms: _353  and  _354
REMARK  144  A    between atoms: _354  and  _355
REMARK  145  A    between atoms: _355  and  _356
REMARK  146  A    between atoms: _365  and  _367
REMARK  147  A    between atoms: _367  and  _368
REMARK  148  A    between atoms: _367  and  _370
REMARK  149  A    between atoms: _370  and  _371
REMARK  150  A    between atoms: _371  and  _372
REMARK  151  A    between atoms: _375  and  _377
REMARK  152  A    between atoms: _377  and  _378
REMARK  153  A    between atoms: _377  and  _380
REMARK  154  A    between atoms: _380  and  _381
REMARK  155  A    between atoms: _383  and  _385
REMARK  156  A    between atoms: _385  and  _386
REMARK  157  A    between atoms: _385  and  _388
REMARK  158  A    between atoms: _388  and  _389
REMARK  159  A    between atoms: _392  and  _394
REMARK  160  A    between atoms: _394  and  _395
REMARK  161  A    between atoms: _394  and  _397
REMARK  162  A    between atoms: _397  and  _398
REMARK  163  A    between atoms: _398  and  _399
REMARK  164  A    between atoms: _399  and  _400
REMARK  165  A    between atoms: _409  and  _411
REMARK  166  A    between atoms: _411  and  _412
REMARK  167  A    between atoms: _411  and  _414
REMARK  168  A    between atoms: _414  and  _415
REMARK  169  A    between atoms: _420  and  _422
REMARK  170  A    between atoms: _422  and  _423
REMARK  171  A    between atoms: _422  and  _425
REMARK  172  A    between atoms: _425  and  _426
REMARK  173  A    between atoms: _429  and  _431
REMARK  174  A    between atoms: _431  and  _432
REMARK  175  A    between atoms: _431  and  _434
REMARK  176  A    between atoms: _434  and  _435
REMARK  177  A    between atoms: _440  and  _441
REMARK  178  A    between atoms: _443  and  _445
REMARK  179  A    between atoms: _445  and  _446
REMARK  180  A    between atoms: _445  and  _448
REMARK  181  A    between atoms: _448  and  _449
REMARK  182  A    between atoms: _452  and  _454
REMARK  183  A    between atoms: _454  and  _455
REMARK  184  A    between atoms: _454  and  _457
REMARK  185  A    between atoms: _457  and  _458
REMARK  186  A    between atoms: _458  and  _459
REMARK  187  A    between atoms: _464  and  _466
REMARK  188  A    between atoms: _466  and  _467
REMARK  189  A    between atoms: _466  and  _469
REMARK  190  A    between atoms: _469  and  _470
REMARK  191  A    between atoms: _470  and  _471
REMARK  192  A    between atoms: _471  and  _472
REMARK  193  A    between atoms: _481  and  _483
REMARK  194  A    between atoms: _483  and  _484
REMARK  195  A    between atoms: _483  and  _486
REMARK  196  A    between atoms: _486  and  _487
REMARK  197  A    between atoms: _487  and  _488
REMARK  198  A    between atoms: _490  and  _492
REMARK  199  A    between atoms: _492  and  _493
REMARK  200  A    between atoms: _492  and  _495
REMARK  201  A    between atoms: _495  and  _496
REMARK  202  A    between atoms: _501  and  _502
REMARK  203  A    between atoms: _504  and  _506
REMARK  204  A    between atoms: _506  and  _507
REMARK  205  A    between atoms: _509  and  _511
REMARK  206  A    between atoms: _511  and  _512
REMARK  207  A    between atoms: _511  and  _514
REMARK  208  A    between atoms: _514  and  _515
REMARK  209  A    between atoms: _515  and  _869
REMARK  210  A    between atoms: _516  and  _518
REMARK  211  A    between atoms: _518  and  _519
REMARK  212  A    between atoms: _518  and  _521
REMARK  213  A    between atoms: _521  and  _522
REMARK  214  A    between atoms: _525  and  _527
REMARK  215  A    between atoms: _527  and  _528
REMARK  216  A    between atoms: _527  and  _530
REMARK  217  A    between atoms: _530  and  _531
REMARK  218  A    between atoms: _531  and  _532
REMARK  219  A    between atoms: _537  and  _539
REMARK  220  A    between atoms: _539  and  _540
REMARK  221  A    between atoms: _539  and  _542
REMARK  222  A    between atoms: _542  and  _543
REMARK  223  A    between atoms: _545  and  _547
REMARK  224  A    between atoms: _547  and  _548
REMARK  225  A    between atoms: _551  and  _553
REMARK  226  A    between atoms: _553  and  _554
REMARK  227  A    between atoms: _553  and  _556
REMARK  228  A    between atoms: _556  and  _557
REMARK  229  A    between atoms: _562  and  _563
REMARK  230  A    between atoms: _565  and  _567
REMARK  231  A    between atoms: _567  and  _568
REMARK  232  A    between atoms: _567  and  _570
REMARK  233  A    between atoms: _570  and  _571
REMARK  234  A    between atoms: _576  and  _577
REMARK  235  A    between atoms: _579  and  _581
REMARK  236  A    between atoms: _581  and  _582
REMARK  237  A    between atoms: _581  and  _584
REMARK  238  A    between atoms: _584  and  _585
REMARK  239  A    between atoms: _588  and  _590
REMARK  240  A    between atoms: _590  and  _591
REMARK  241  A    between atoms: _594  and  _596
REMARK  242  A    between atoms: _596  and  _597
REMARK  243  A    between atoms: _596  and  _599
REMARK  244  A    between atoms: _599  and  _600
REMARK  245  A    between atoms: _610  and  _612
REMARK  246  A    between atoms: _612  and  _613
REMARK  247  A    between atoms: _616  and  _618
REMARK  248  A    between atoms: _618  and  _619
REMARK  249  A    between atoms: _622  and  _624
REMARK  250  A    between atoms: _624  and  _625
REMARK  251  A    between atoms: _624  and  _627
REMARK  252  A    between atoms: _627  and  _628
REMARK  253  A    between atoms: _628  and  _629
REMARK  254  A    between atoms: _634  and  _636
REMARK  255  A    between atoms: _636  and  _637
REMARK  256  A    between atoms: _636  and  _639
REMARK  257  A    between atoms: _639  and  _640
REMARK  258  A    between atoms: _643  and  _645
REMARK  259  A    between atoms: _645  and  _646
REMARK  260  A    between atoms: _645  and  _648
REMARK  261  A    between atoms: _648  and  _649
REMARK  262  A    between atoms: _652  and  _654
REMARK  263  A    between atoms: _654  and  _655
REMARK  264  A    between atoms: _654  and  _657
REMARK  265  A    between atoms: _657  and  _658
REMARK  266  A    between atoms: _658  and  _659
REMARK  267  A    between atoms: _664  and  _666
REMARK  268  A    between atoms: _666  and  _667
REMARK  269  A    between atoms: _666  and  _669
REMARK  270  A    between atoms: _669  and  _670
REMARK  271  A    between atoms: _670  and  _671
REMARK  272  A    between atoms: _671  and  _672
REMARK  273  A    between atoms: _681  and  _683
REMARK  274  A    between atoms: _683  and  _684
REMARK  275  A    between atoms: _683  and  _686
REMARK  276  A    between atoms: _686  and  _687
REMARK  277  A    between atoms: _687  and  _688
REMARK  278  A    between atoms: _688  and  _689
REMARK  279  A    between atoms: _689  and  _690
REMARK  280  A    between atoms: _694  and  _696
REMARK  281  A    between atoms: _696  and  _697
REMARK  282  A    between atoms: _696  and  _699
REMARK  283  A    between atoms: _699  and  _700
REMARK  284  A    between atoms: _710  and  _712
REMARK  285  A    between atoms: _712  and  _713
REMARK  286  A    between atoms: _712  and  _715
REMARK  287  A    between atoms: _715  and  _716
REMARK  288  A    between atoms: _716  and  _717
REMARK  289  A    between atoms: _720  and  _722
REMARK  290  A    between atoms: _722  and  _723
REMARK  291  A    between atoms: _726  and  _728
REMARK  292  A    between atoms: _728  and  _729
REMARK  293  A    between atoms: _732  and  _734
REMARK  294  A    between atoms: _734  and  _735
REMARK  295  A    between atoms: _734  and  _737
REMARK  296  A    between atoms: _737  and  _738
REMARK  297  A    between atoms: _738  and  _739
REMARK  298  A    between atoms: _739  and  _740
REMARK  299  A    between atoms: _749  and  _751
REMARK  300  A    between atoms: _751  and  _752
REMARK  301  A    between atoms: _751  and  _754
REMARK  302  A    between atoms: _754  and  _755
REMARK  303  A    between atoms: _755  and  _756
REMARK  304  A    between atoms: _759  and  _761
REMARK  305  A    between atoms: _761  and  _762
REMARK  306  A    between atoms: _765  and  _767
REMARK  307  A    between atoms: _767  and  _768
REMARK  308  A    between atoms: _767  and  _770
REMARK  309  A    between atoms: _770  and  _771
REMARK  310  A    between atoms: _771  and  _772
REMARK  311  A    between atoms: _775  and  _777
REMARK  312  A    between atoms: _777  and  _778
REMARK  313  A    between atoms: _777  and  _780
REMARK  314  A    between atoms: _780  and  _781
REMARK  315  A    between atoms: _781  and  _782
REMARK  316  A    between atoms: _787  and  _789
REMARK  317  A    between atoms: _789  and  _790
REMARK  318  A    between atoms: _789  and  _792
REMARK  319  A    between atoms: _792  and  _793
REMARK  320  A    between atoms: _803  and  _805
REMARK  321  A    between atoms: _805  and  _806
REMARK  322  A    between atoms: _805  and  _808
REMARK  323  A    between atoms: _808  and  _809
REMARK  324  A    between atoms: _809  and  _810
REMARK  325  A    between atoms: _810  and  _811
REMARK  326  A    between atoms: _820  and  _822
REMARK  327  A    between atoms: _822  and  _823
REMARK  328  A    between atoms: _826  and  _828
REMARK  329  A    between atoms: _828  and  _829
REMARK  330  A    between atoms: _828  and  _831
REMARK  331  A    between atoms: _831  and  _832
REMARK  332  A    between atoms: _837  and  _838
REMARK  333  A    between atoms: _840  and  _842
REMARK  334  A    between atoms: _842  and  _843
REMARK  335  A    between atoms: _842  and  _845
REMARK  336  A    between atoms: _845  and  _846
REMARK  337  A    between atoms: _849  and  _851
REMARK  338  A    between atoms: _851  and  _852
REMARK  339  A    between atoms: _854  and  _856
REMARK  340  A    between atoms: _856  and  _857
REMARK  341  A    between atoms: _856  and  _859
REMARK  342  A    between atoms: _859  and  _860
REMARK  343  A    between atoms: _863  and  _865
REMARK  344  A    between atoms: _865  and  _866
REMARK  345  A    between atoms: _865  and  _868
REMARK  346  A    between atoms: _868  and  _869
REMARK  347  A    between atoms: _870  and  _872
REMARK  348  A    between atoms: _872  and  _873
REMARK  349  A    between atoms: _872  and  _875
REMARK  350  A    between atoms: _878  and  _880
REMARK  351  A    between atoms: _880  and  _881
REMARK  352  A    between atoms: _880  and  _883
REMARK  353  A    between atoms: _883  and  _884
REMARK  354  A    between atoms: _884  and  _885
REMARK  355  A    between atoms: _888  and  _890
REMARK  356  A    between atoms: _890  and  _891
REMARK  357  A    between atoms: _890  and  _893
REMARK  358  A    between atoms: _893  and  _894
REMARK  359  A    between atoms: _904  and  _906
REMARK  360  A    between atoms: _906  and  _907
REMARK  361  A    between atoms: _906  and  _909
REMARK  362  A    between atoms: _909  and  _910
REMARK  363  A    between atoms: _913  and  _915
REMARK  364  A    between atoms: _915  and  _916
REMARK  365  A    between atoms: _915  and  _918
REMARK  366  A    between atoms: _918  and  _919
REMARK  367  A    between atoms: _919  and  _920
REMARK  368  A    between atoms: _920  and  _921
REMARK  369  A    between atoms: _930  and  _932
REMARK  370  A    between atoms: _932  and  _933
REMARK  371  A    between atoms: _932  and  _935
REMARK  372  A    between atoms: _935  and  _936
REMARK  373  A    between atoms: _941  and  _942
REMARK  374  A    between atoms: _944  and  _946
REMARK  375  A    between atoms: _946  and  _947
REMARK  376  A    between atoms: _946  and  _949
REMARK  377  A    between atoms: _949  and  _950
REMARK                            x       y       z     vdW  Elec       q    Type
REMARK                         _______ _______ _______ _____ _____    ______ ____
ROOT
ATOM      1  CA  ILE A   1       4.191  32.300  36.348  0.00  0.00    +0.133 C 
ENDROOT
BRANCH   1   2
ATOM      2  N   ILE A   1       3.019  32.260  35.473  0.00  0.00    -0.239 NA
ATOM      3  H   ILE A   1       3.010  32.837  34.608  0.00  0.00    +0.142 HD
ENDBRANCH   1   2
BRANCH   1   4
ATOM      4  C   ILE A   1       4.106  33.421  37.412  0.00  0.00    +0.224 C 
ATOM      5  O   ILE A   1       4.875  33.451  38.388  0.00  0.00    -0.287 OA
ENDBRANCH   1   4
BRANCH   1   6
ATOM      6  CB  ILE A   1       5.513  32.421  35.504  0.00  0.00    +0.023 C 
ATOM      7  CG2 ILE A   1       5.694  33.834  34.972  0.00  0.00    +0.002 C 
BRANCH   6   8
ATOM      8  CG1 ILE A   1       6.731  31.987  36.336  0.00  0.00    +0.002 C 
ATOM      9  CD1 ILE A   1       6.804  30.461  36.570  0.00  0.00    +0.000 C 
ENDBRANCH   6   8
ENDBRANCH   1   6
TORSDOF 4
REMARK  Name = ../refined-set-2016/1xr9/1xr9_pocket.pdb
REMARK  377 active torsions:
REMARK  status: ('A' for Active; 'I' for Inactive)
REMARK    1  A    between atoms: _1  and  _3
REMARK    2  A    between atoms: _3  and  _4
REMARK    3  A    between atoms: _3  and  _6
REMARK    4  A    between atoms: _6  and  _7
REMARK    5  A    between atoms: _7  and  _8
REMARK    6  A    between atoms: _10  and  _12
REMARK    7  A    between atoms: _12  and  _13
REMARK    8  A    between atoms: _12  and  _15
REMARK    9  A    between atoms: _15  and  _16
REMARK   10  A    between atoms: _16  and  _17
REMARK   11  A    between atoms: _17  and  _18
REMARK   12  A    between atoms: _27  and  _29
REMARK   13  A    between atoms: _29  and  _30
REMARK   14  A    between atoms: _29  and  _32
REMARK   15  A    between atoms: _32  and  _33
REMARK   16  A    between atoms: _38  and  _39
REMARK   17  A    between atoms: _41  and  _43
REMARK   18  A    between atoms: _43  and  _44
REMARK   19  A    between atoms: _43  and  _46
REMARK   20  A    between atoms: _46  and  _47
REMARK   21  A    between atoms: _53  and  _55
REMARK   22  A    between atoms: _55  and  _56
REMARK   23  A    between atoms: _55  and  _58
REMARK   24  A    between atoms: _58  and  _59
REMARK   25  A    between atoms: _64  and  _65
REMARK   26  A    between atoms: _67  and  _69
REMARK   27  A    between atoms: _69  and  _70
REMARK   28  A    between atoms: _69  and  _72
REMARK   29  A    between atoms: _72  and  _73
REMARK   30  A    between atoms: _79  and  _81
REMARK   31  A    between atoms: _81  and  _82
REMARK   32  A    between atoms: _85  and  _87
REMARK   33  A    between atoms: _87  and  _88
REMARK   34  A    between atoms: _87  and  _90
REMARK   35  A    between atoms: _93  and  _95
REMARK   36  A    between atoms: _95  and  _96
REMARK   37  A    between atoms: _98  and  _100
REMARK   38  A    between atoms: _100  and  _101
REMARK   39  A    between atoms: _100  and  _103
REMARK   40  A    between atoms: _106  and  _108
REMARK   41  A    between atoms: _108  and  _109
REMARK   42  A    between atoms: _108  and  _111
REMARK   43  A    between atoms: _111  and  _112
REMARK   44  A    between atoms: _118  and  _120
REMARK   45  A    between atoms: _120  and  _121
REMARK   46  A    between atoms: _120  and  _123
REMARK   47  A    between atoms: _126  and  _128
REMARK   48  A    between atoms: _128  and  _129
REMARK   49  A    between atoms: _128  and  _131
REMARK   50  A    between atoms: _131  and  _132
REMARK   51  A    between atoms: _138  and  _140
REMARK   52  A    between atoms: _140  and  _141
REMARK   53  A    between atoms: _140  and  _143
REMARK   54  A    between atoms: _143  and  _144
REMARK   55  A    between atoms: _144  and  _145
REMARK   56  A    between atoms: _147  and  _149
REMARK   57  A    between atoms: _149  and  _150
REMARK   58  A    between atoms: _149  and  _152
REMARK   59  A    between atoms: _152  and  _153
REMARK   60  A    between atoms: _156  and  _158
REMARK   61  A    between atoms: _158  and  _159
REMARK   62  A    between atoms: _158  and  _161
REMARK   63  A    between atoms: _161  and  _162
REMARK   64  A    between atoms: _162  and  _163
REMARK   65  A    between atoms: _166  and  _168
REMARK   66  A    between atoms: _168  and  _169
REMARK   67  A    between atoms: _168  and  _171
REMARK   68  A    between atoms: _171  and  _172
REMARK   69  A    between atoms: _172  and  _173
REMARK   70  A    between atoms: _176  and  _178
REMARK   71  A    between atoms: _178  and  _179
REMARK   72  A    between atoms: _178  and  _181
REMARK   73  A    between atoms: _181  and  _182
REMARK   74  A    between atoms: _187  and  _188
REMARK   75  A    between atoms: _190  and  _192
REMARK   76  A    between atoms: _192  and  _193
REMARK   77  A    between atoms: _192  and  _195
REMARK   78  A    between atoms: _195  and  _196
REMARK   79  A    between atoms: _206  and  _208
REMARK   80  A    between atoms: _208  and  _209
REMARK   81  A    between atoms: _208  and  _211
REMARK   82  A    between atoms: _211  and  _212
REMARK   83  A    between atoms: _215  and  _217
REMARK   84  A    between atoms: _217  and  _218
REMARK   85  A    between atoms: _217  and  _220
REMARK   86  A    between atoms: _220  and  _221
REMARK   87  A    between atoms: _221  and  _222
REMARK   88  A    between atoms: _222  and  _223
REMARK   89  A    between atoms: _232  and  _234
REMARK   90  A    between atoms: _234  and  _235
REMARK   91  A    between atoms: _234  and  _237
REMARK   92  A    between atoms: _237  and  _238
REMARK   93  A    between atoms: _238  and  _239
REMARK   94  A    between atoms: _242  and  _244
REMARK   95  A    between atoms: _244  and  _245
REMARK   96  A    between atoms: _244  and  _247
REMARK   97  A    between atoms: _247  and  _248
REMARK   98  A    between atoms: _251  and  _253
REMARK   99  A    between atoms: _253  and  _254
REMARK  100  A    between atoms: _253  and  _256
REMARK  101  A    between atoms: _256  and  _257
REMARK  102  A    between atoms: _257  and  _258
REMARK  103  A    between atoms: _263  and  _265
REMARK  104  A    between atoms: _265  and  _266
REMARK  105  A    between atoms: _265  and  _268
REMARK  106  A    between atoms: _268  and  _269
REMARK  107  A    between atoms: _272  and  _274
REMARK  108  A    between atoms: _274  and  _275
REMARK  109  A    between atoms: _274  and  _277
REMARK  110  A    between atoms: _277  and  _278
REMARK  111  A    between atoms: _280  and  _282
REMARK  112  A    between atoms: _282  and  _283
REMARK  113  A    between atoms: _282  and  _285
REMARK  114  A    between atoms: _285  and  _286
REMARK  115  A    between atoms: _286  and  _287
REMARK  116  A    between atoms: _287  and  _288
REMARK  117  A    between atoms: _288  and  _289
REMARK  118  A    between atoms: _293  and  _295
REMARK  119  A    between atoms: _295  and  _296
REMARK  120  A    between atoms: _295  and  _298
REMARK  121  A    between atoms: _298  and  _299
REMARK  122  A    between atoms: _302  and  _304
REMARK  123  A    between atoms: _304  and  _305
REMARK  124  A    between atoms: _304  and  _307
REMARK  125  A    between atoms: _307  and  _308
REMARK  126  A    between atoms: _313  and  _315
REMARK  127  A    between atoms: _315  and  _316
REMARK  128  A    between atoms: _315  and  _318
REMARK  129  A    between atoms: _318  and  _319
REMARK  130  A    between atoms: _319  and  _320
REMARK  131  A    between atoms: _325  and  _327
REMARK  132  A    between atoms: _327  and  _328
REMARK  133  A    between atoms: _327  and  _330
REMARK  134  A    between atoms: _330  and  _331
REMARK  135  A    between atoms: _334  and  _336
REMARK  136  A    between atoms: _336  and  _337
REMARK  137  A    between atoms: _336  and  _339
REMARK  138  A    between atoms: _339  and  _340
REMARK  139  A    between atoms: _345  and  _346
REMARK  140  A    between atoms: _348  and  _350
REMARK  141  A    between atoms: _350  and  _351
REMARK  142  A    between atoms: _350  and  _353
REMARK  143  A    between atoms: _353  and  _354
REMARK  144  A    between atoms: _354  and  _355
REMARK  145  A    between atoms: _355  and  _356
REMARK  146  A    between atoms: _365  and  _367
REMARK  147  A    between atoms: _367  and  _368
REMARK  148  A    between atoms: _367  and  _370
REMARK  149  A    between atoms: _370  and  _371
REMARK  150  A    between atoms: _371  and  _372
REMARK  151  A    between atoms: _375  and  _377
REMARK  152  A    between atoms: _377  and  _378
REMARK  153  A    between atoms: _377  and  _380
REMARK  154  A    between atoms: _380  and  _381
REMARK  155  A    between atoms: _383  and  _385
REMARK  156  A    between atoms: _385  and  _386
REMARK  157  A    between atoms: _385  and  _388
REMARK  158  A    between atoms: _388  and  _389
REMARK  159  A    between atoms: _392  and  _394
REMARK  160  A    between atoms: _394  and  _395
REMARK  161  A    between atoms: _394  and  _397
REMARK  162  A    between atoms: _397  and  _398
REMARK  163  A    between atoms: _398  and  _399
REMARK  164  A    between atoms: _399  and  _400
REMARK  165  A    between atoms: _409  and  _411
REMARK  166  A    between atoms: _411  and  _412
REMARK  167  A    between atoms: _411  and  _414
REMARK  168  A    between atoms: _414  and  _415
REMARK  169  A    between atoms: _420  and  _422
REMARK  170  A    between atoms: _422  and  _423
REMARK  171  A    between atoms: _422  and  _425
REMARK  172  A    between atoms: _425  and  _426
REMARK  173  A    between atoms: _429  and  _431
REMARK  174  A    between atoms: _431  and  _432
REMARK  175  A    between atoms: _431  and  _434
REMARK  176  A    between atoms: _434  and  _435
REMARK  177  A    between atoms: _440  and  _441
REMARK  178  A    between atoms: _443  and  _445
REMARK  179  A    between atoms: _445  and  _446
REMARK  180  A    between atoms: _445  and  _448
REMARK  181  A    between atoms: _448  and  _449
REMARK  182  A    between atoms: _452  and  _454
REMARK  183  A    between atoms: _454  and  _455
REMARK  184  A    between atoms: _454  and  _457
REMARK  185  A    between atoms: _457  and  _458
REMARK  186  A    between atoms: _458  and  _459
REMARK  187  A    between atoms: _464  and  _466
REMARK  188  A    between atoms: _466  and  _467
REMARK  189  A    between atoms: _466  and  _469
REMARK  190  A    between atoms: _469  and  _470
REMARK  191  A    between atoms: _470  and  _471
REMARK  192  A    between atoms: _471  and  _472
REMARK  193  A    between atoms: _481  and  _483
REMARK  194  A    between atoms: _483  and  _484
REMARK  195  A    between atoms: _483  and  _486
REMARK  196  A    between atoms: _486  and  _487
REMARK  197  A    between atoms: _487  and  _488
REMARK  198  A    between atoms: _490  and  _492
REMARK  199  A    between atoms: _492  and  _493
REMARK  200  A    between atoms: _492  and  _495
REMARK  201  A    between atoms: _495  and  _496
REMARK  202  A    between atoms: _501  and  _502
REMARK  203  A    between atoms: _504  and  _506
REMARK  204  A    between atoms: _506  and  _507
REMARK  205  A    between atoms: _509  and  _511
REMARK  206  A    between atoms: _511  and  _512
REMARK  207  A    between atoms: _511  and  _514
REMARK  208  A    between atoms: _514  and  _515
REMARK  209  A    between atoms: _515  and  _869
REMARK  210  A    between atoms: _516  and  _518
REMARK  211  A    between atoms: _518  and  _519
REMARK  212  A    between atoms: _518  and  _521
REMARK  213  A    between atoms: _521  and  _522
REMARK  214  A    between atoms: _525  and  _527
REMARK  215  A    between atoms: _527  and  _528
REMARK  216  A    between atoms: _527  and  _530
REMARK  217  A    between atoms: _530  and  _531
REMARK  218  A    between atoms: _531  and  _532
REMARK  219  A    between atoms: _537  and  _539
REMARK  220  A    between atoms: _539  and  _540
REMARK  221  A    between atoms: _539  and  _542
REMARK  222  A    between atoms: _542  and  _543
REMARK  223  A    between atoms: _545  and  _547
REMARK  224  A    between atoms: _547  and  _548
REMARK  225  A    between atoms: _551  and  _553
REMARK  226  A    between atoms: _553  and  _554
REMARK  227  A    between atoms: _553  and  _556
REMARK  228  A    between atoms: _556  and  _557
REMARK  229  A    between atoms: _562  and  _563
REMARK  230  A    between atoms: _565  and  _567
REMARK  231  A    between atoms: _567  and  _568
REMARK  232  A    between atoms: _567  and  _570
REMARK  233  A    between atoms: _570  and  _571
REMARK  234  A    between atoms: _576  and  _577
REMARK  235  A    between atoms: _579  and  _581
REMARK  236  A    between atoms: _581  and  _582
REMARK  237  A    between atoms: _581  and  _584
REMARK  238  A    between atoms: _584  and  _585
REMARK  239  A    between atoms: _588  and  _590
REMARK  240  A    between atoms: _590  and  _591
REMARK  241  A    between atoms: _594  and  _596
REMARK  242  A    between atoms: _596  and  _597
REMARK  243  A    between atoms: _596  and  _599
REMARK  244  A    between atoms: _599  and  _600
REMARK  245  A    between atoms: _610  and  _612
REMARK  246  A    between atoms: _612  and  _613
REMARK  247  A    between atoms: _616  and  _618
REMARK  248  A    between atoms: _618  and  _619
REMARK  249  A    between atoms: _622  and  _624
REMARK  250  A    between atoms: _624  and  _625
REMARK  251  A    between atoms: _624  and  _627
REMARK  252  A    between atoms: _627  and  _628
REMARK  253  A    between atoms: _628  and  _629
REMARK  254  A    between atoms: _634  and  _636
REMARK  255  A    between atoms: _636  and  _637
REMARK  256  A    between atoms: _636  and  _639
REMARK  257  A    between atoms: _639  and  _640
REMARK  258  A    between atoms: _643  and  _645
REMARK  259  A    between atoms: _645  and  _646
REMARK  260  A    between atoms: _645  and  _648
REMARK  261  A    between atoms: _648  and  _649
REMARK  262  A    between atoms: _652  and  _654
REMARK  263  A    between atoms: _654  and  _655
REMARK  264  A    between atoms: _654  and  _657
REMARK  265  A    between atoms: _657  and  _658
REMARK  266  A    between atoms: _658  and  _659
REMARK  267  A    between atoms: _664  and  _666
REMARK  268  A    between atoms: _666  and  _667
REMARK  269  A    between atoms: _666  and  _669
REMARK  270  A    between atoms: _669  and  _670
REMARK  271  A    between atoms: _670  and  _671
REMARK  272  A    between atoms: _671  and  _672
REMARK  273  A    between atoms: _681  and  _683
REMARK  274  A    between atoms: _683  and  _684
REMARK  275  A    between atoms: _683  and  _686
REMARK  276  A    between atoms: _686  and  _687
REMARK  277  A    between atoms: _687  and  _688
REMARK  278  A    between atoms: _688  and  _689
REMARK  279  A    between atoms: _689  and  _690
REMARK  280  A    between atoms: _694  and  _696
REMARK  281  A    between atoms: _696  and  _697
REMARK  282  A    between atoms: _696  and  _699
REMARK  283  A    between atoms: _699  and  _700
REMARK  284  A    between atoms: _710  and  _712
REMARK  285  A    between atoms: _712  and  _713
REMARK  286  A    between atoms: _712  and  _715
REMARK  287  A    between atoms: _715  and  _716
REMARK  288  A    between atoms: _716  and  _717
REMARK  289  A    between atoms: _720  and  _722
REMARK  290  A    between atoms: _722  and  _723
REMARK  291  A    between atoms: _726  and  _728
REMARK  292  A    between atoms: _728  and  _729
REMARK  293  A    between atoms: _732  and  _734
REMARK  294  A    between atoms: _734  and  _735
REMARK  295  A    between atoms: _734  and  _737
REMARK  296  A    between atoms: _737  and  _738
REMARK  297  A    between atoms: _738  and  _739
REMARK  298  A    between atoms: _739  and  _740
REMARK  299  A    between atoms: _749  and  _751
REMARK  300  A    between atoms: _751  and  _752
REMARK  301  A    between atoms: _751  and  _754
REMARK  302  A    between atoms: _754  and  _755
REMARK  303  A    between atoms: _755  and  _756
REMARK  304  A    between atoms: _759  and  _761
REMARK  305  A    between atoms: _761  and  _762
REMARK  306  A    between atoms: _765  and  _767
REMARK  307  A    between atoms: _767  and  _768
REMARK  308  A    between atoms: _767  and  _770
REMARK  309  A    between atoms: _770  and  _771
REMARK  310  A    between atoms: _771  and  _772
REMARK  311  A    between atoms: _775  and  _777
REMARK  312  A    between atoms: _777  and  _778
REMARK  313  A    between atoms: _777  and  _780
REMARK  314  A    between atoms: _780  and  _781
REMARK  315  A    between atoms: _781  and  _782
REMARK  316  A    between atoms: _787  and  _789
REMARK  317  A    between atoms: _789  and  _790
REMARK  318  A    between atoms: _789  and  _792
REMARK  319  A    between atoms: _792  and  _793
REMARK  320  A    between atoms: _803  and  _805
REMARK  321  A    between atoms: _805  and  _806
REMARK  322  A    between atoms: _805  and  _808
REMARK  323  A    between atoms: _808  and  _809
REMARK  324  A    between atoms: _809  and  _810
REMARK  325  A    between atoms: _810  and  _811
REMARK  326  A    between atoms: _820  and  _822
REMARK  327  A    between atoms: _822  and  _823
REMARK  328  A    between atoms: _826  and  _828
REMARK  329  A    between atoms: _828  and  _829
REMARK  330  A    between atoms: _828  and  _831
REMARK  331  A    between atoms: _831  and  _832
REMARK  332  A    between atoms: _837  and  _838
REMARK  333  A    between atoms: _840  and  _842
REMARK  334  A    between atoms: _842  and  _843
REMARK  335  A    between atoms: _842  and  _845
REMARK  336  A    between atoms: _845  and  _846
REMARK  337  A    between atoms: _849  and  _851
REMARK  338  A    between atoms: _851  and  _852
REMARK  339  A    between atoms: _854  and  _856
REMARK  340  A    between atoms: _856  and  _857
REMARK  341  A    between atoms: _856  and  _859
REMARK  342  A    between atoms: _859  and  _860
REMARK  343  A    between atoms: _863  and  _865
REMARK  344  A    between atoms: _865  and  _866
REMARK  345  A    between atoms: _865  and  _868
REMARK  346  A    between atoms: _868  and  _869
REMARK  347  A    between atoms: _870  and  _872
REMARK  348  A    between atoms: _872  and  _873
REMARK  349  A    between atoms: _872  and  _875
REMARK  350  A    between atoms: _878  and  _880
REMARK  351  A    between atoms: _880  and  _881
REMARK  352  A    between atoms: _880  and  _883
REMARK  353  A    between atoms: _883  and  _884
REMARK  354  A    between atoms: _884  and  _885
REMARK  355  A    between atoms: _888  and  _890
REMARK  356  A    between atoms: _890  and  _891
REMARK  357  A    between atoms: _890  and  _893
REMARK  358  A    between atoms: _893  and  _894
REMARK  359  A    between atoms: _904  and  _906
REMARK  360  A    between atoms: _906  and  _907
REMARK  361  A    between atoms: _906  and  _909
REMARK  362  A    between atoms: _909  and  _910
REMARK  363  A    between atoms: _913  and  _915
REMARK  364  A    between atoms: _915  and  _916
REMARK  365  A    between atoms: _915  and  _918
REMARK  366  A    between atoms: _918  and  _919
REMARK  367  A    between atoms: _919  and  _920
REMARK  368  A    between atoms: _920  and  _921
REMARK  369  A    between atoms: _930  and  _932
REMARK  370  A    between atoms: _932  and  _933
REMARK  371  A    between atoms: _932  and  _935
REMARK  372  A    between atoms: _935  and  _936
REMARK  373  A    between atoms: _941  and  _942
REMARK  374  A    between atoms: _944  and  _946
REMARK  375  A    between atoms: _946  and  _947
REMARK  376  A    between atoms: _946  and  _949
REMARK  377  A    between atoms: _949  and  _950
REMARK                            x       y       z     vdW  Elec       q    Type
REMARK                         _______ _______ _______ _____ _____    ______ ____
ROOT
ATOM      1  CA  GLU A   1       5.154  32.297  42.008  0.00  0.00    +0.134 C 
ENDROOT
BRANCH   1   2
ATOM      2  N   GLU A   1       4.012  32.763  41.239  0.00  0.00    -0.239 NA
ATOM      3  H   GLU A   1       4.094  32.936  40.217  0.00  0.00    +0.142 HD
ENDBRANCH   1   2
BRANCH   1   4
ATOM      4  C   GLU A   1       5.532  33.398  43.011  0.00  0.00    +0.224 C 
ATOM      5  O   GLU A   1       5.435  34.597  42.700  0.00  0.00    -0.287 OA
ENDBRANCH   1   4
BRANCH   1   6
ATOM      6  CB  GLU A   1       6.339  31.919  41.111  0.00  0.00    +0.037 C 
BRANCH   6   7
ATOM      7  CG  GLU A   1       6.042  30.841  40.074  0.00  0.00    +0.116 C 
BRANCH   7   8
ATOM      8  CD  GLU A   1       5.688  29.478  40.668  0.00  0.00    +0.365 C 
ATOM      9  OE2 GLU A   1       6.013  29.195  41.845  0.00  0.00    -0.246 OA
ATOM     10  OE1 GLU A   1       5.075  28.678  39.947  0.00  0.00    -0.246 OA
ENDBRANCH   7   8
ENDBRANCH   6   7
ENDBRANCH   1   6
TORSDOF 5
REMARK  Name = ../refined-set-2016/1xr9/1xr9_pocket.pdb
REMARK  377 active torsions:
REMARK  status: ('A' for Active; 'I' for Inactive)
REMARK    1  A    between atoms: _1  and  _3
REMARK    2  A    between atoms: _3  and  _4
REMARK    3  A    between atoms: _3  and  _6
REMARK    4  A    between atoms: _6  and  _7
REMARK    5  A    between atoms: _7  and  _8
REMARK    6  A    between atoms: _10  and  _12
REMARK    7  A    between atoms: _12  and  _13
REMARK    8  A    between atoms: _12  and  _15
REMARK    9  A    between atoms: _15  and  _16
REMARK   10  A    between atoms: _16  and  _17
REMARK   11  A    between atoms: _17  and  _18
REMARK   12  A    between atoms: _27  and  _29
REMARK   13  A    between atoms: _29  and  _30
REMARK   14  A    between atoms: _29  and  _32
REMARK   15  A    between atoms: _32  and  _33
REMARK   16  A    between atoms: _38  and  _39
REMARK   17  A    between atoms: _41  and  _43
REMARK   18  A    between atoms: _43  and  _44
REMARK   19  A    between atoms: _43  and  _46
REMARK   20  A    between atoms: _46  and  _47
REMARK   21  A    between atoms: _53  and  _55
REMARK   22  A    between atoms: _55  and  _56
REMARK   23  A    between atoms: _55  and  _58
REMARK   24  A    between atoms: _58  and  _59
REMARK   25  A    between atoms: _64  and  _65
REMARK   26  A    between atoms: _67  and  _69
REMARK   27  A    between atoms: _69  and  _70
REMARK   28  A    between atoms: _69  and  _72
REMARK   29  A    between atoms: _72  and  _73
REMARK   30  A    between atoms: _79  and  _81
REMARK   31  A    between atoms: _81  and  _82
REMARK   32  A    between atoms: _85  and  _87
REMARK   33  A    between atoms: _87  and  _88
REMARK   34  A    between atoms: _87  and  _90
REMARK   35  A    between atoms: _93  and  _95
REMARK   36  A    between atoms: _95  and  _96
REMARK   37  A    between atoms: _98  and  _100
REMARK   38  A    between atoms: _100  and  _101
REMARK   39  A    between atoms: _100  and  _103
REMARK   40  A    between atoms: _106  and  _108
REMARK   41  A    between atoms: _108  and  _109
REMARK   42  A    between atoms: _108  and  _111
REMARK   43  A    between atoms: _111  and  _112
REMARK   44  A    between atoms: _118  and  _120
REMARK   45  A    between atoms: _120  and  _121
REMARK   46  A    between atoms: _120  and  _123
REMARK   47  A    between atoms: _126  and  _128
REMARK   48  A    between atoms: _128  and  _129
REMARK   49  A    between atoms: _128  and  _131
REMARK   50  A    between atoms: _131  and  _132
REMARK   51  A    between atoms: _138  and  _140
REMARK   52  A    between atoms: _140  and  _141
REMARK   53  A    between atoms: _140  and  _143
REMARK   54  A    between atoms: _143  and  _144
REMARK   55  A    between atoms: _144  and  _145
REMARK   56  A    between atoms: _147  and  _149
REMARK   57  A    between atoms: _149  and  _150
REMARK   58  A    between atoms: _149  and  _152
REMARK   59  A    between atoms: _152  and  _153
REMARK   60  A    between atoms: _156  and  _158
REMARK   61  A    between atoms: _158  and  _159
REMARK   62  A    between atoms: _158  and  _161
REMARK   63  A    between atoms: _161  and  _162
REMARK   64  A    between atoms: _162  and  _163
REMARK   65  A    between atoms: _166  and  _168
REMARK   66  A    between atoms: _168  and  _169
REMARK   67  A    between atoms: _168  and  _171
REMARK   68  A    between atoms: _171  and  _172
REMARK   69  A    between atoms: _172  and  _173
REMARK   70  A    between atoms: _176  and  _178
REMARK   71  A    between atoms: _178  and  _179
REMARK   72  A    between atoms: _178  and  _181
REMARK   73  A    between atoms: _181  and  _182
REMARK   74  A    between atoms: _187  and  _188
REMARK   75  A    between atoms: _190  and  _192
REMARK   76  A    between atoms: _192  and  _193
REMARK   77  A    between atoms: _192  and  _195
REMARK   78  A    between atoms: _195  and  _196
REMARK   79  A    between atoms: _206  and  _208
REMARK   80  A    between atoms: _208  and  _209
REMARK   81  A    between atoms: _208  and  _211
REMARK   82  A    between atoms: _211  and  _212
REMARK   83  A    between atoms: _215  and  _217
REMARK   84  A    between atoms: _217  and  _218
REMARK   85  A    between atoms: _217  and  _220
REMARK   86  A    between atoms: _220  and  _221
REMARK   87  A    between atoms: _221  and  _222
REMARK   88  A    between atoms: _222  and  _223
REMARK   89  A    between atoms: _232  and  _234
REMARK   90  A    between atoms: _234  and  _235
REMARK   91  A    between atoms: _234  and  _237
REMARK   92  A    between atoms: _237  and  _238
REMARK   93  A    between atoms: _238  and  _239
REMARK   94  A    between atoms: _242  and  _244
REMARK   95  A    between atoms: _244  and  _245
REMARK   96  A    between atoms: _244  and  _247
REMARK   97  A    between atoms: _247  and  _248
REMARK   98  A    between atoms: _251  and  _253
REMARK   99  A    between atoms: _253  and  _254
REMARK  100  A    between atoms: _253  and  _256
REMARK  101  A    between atoms: _256  and  _257
REMARK  102  A    between atoms: _257  and  _258
REMARK  103  A    between atoms: _263  and  _265
REMARK  104  A    between atoms: _265  and  _266
REMARK  105  A    between atoms: _265  and  _268
REMARK  106  A    between atoms: _268  and  _269
REMARK  107  A    between atoms: _272  and  _274
REMARK  108  A    between atoms: _274  and  _275
REMARK  109  A    between atoms: _274  and  _277
REMARK  110  A    between atoms: _277  and  _278
REMARK  111  A    between atoms: _280  and  _282
REMARK  112  A    between atoms: _282  and  _283
REMARK  113  A    between atoms: _282  and  _285
REMARK  114  A    between atoms: _285  and  _286
REMARK  115  A    between atoms: _286  and  _287
REMARK  116  A    between atoms: _287  and  _288
REMARK  117  A    between atoms: _288  and  _289
REMARK  118  A    between atoms: _293  and  _295
REMARK  119  A    between atoms: _295  and  _296
REMARK  120  A    between atoms: _295  and  _298
REMARK  121  A    between atoms: _298  and  _299
REMARK  122  A    between atoms: _302  and  _304
REMARK  123  A    between atoms: _304  and  _305
REMARK  124  A    between atoms: _304  and  _307
REMARK  125  A    between atoms: _307  and  _308
REMARK  126  A    between atoms: _313  and  _315
REMARK  127  A    between atoms: _315  and  _316
REMARK  128  A    between atoms: _315  and  _318
REMARK  129  A    between atoms: _318  and  _319
REMARK  130  A    between atoms: _319  and  _320
REMARK  131  A    between atoms: _325  and  _327
REMARK  132  A    between atoms: _327  and  _328
REMARK  133  A    between atoms: _327  and  _330
REMARK  134  A    between atoms: _330  and  _331
REMARK  135  A    between atoms: _334  and  _336
REMARK  136  A    between atoms: _336  and  _337
REMARK  137  A    between atoms: _336  and  _339
REMARK  138  A    between atoms: _339  and  _340
REMARK  139  A    between atoms: _345  and  _346
REMARK  140  A    between atoms: _348  and  _350
REMARK  141  A    between atoms: _350  and  _351
REMARK  142  A    between atoms: _350  and  _353
REMARK  143  A    between atoms: _353  and  _354
REMARK  144  A    between atoms: _354  and  _355
REMARK  145  A    between atoms: _355  and  _356
REMARK  146  A    between atoms: _365  and  _367
REMARK  147  A    between atoms: _367  and  _368
REMARK  148  A    between atoms: _367  and  _370
REMARK  149  A    between atoms: _370  and  _371
REMARK  150  A    between atoms: _371  and  _372
REMARK  151  A    between atoms: _375  and  _377
REMARK  152  A    between atoms: _377  and  _378
REMARK  153  A    between atoms: _377  and  _380
REMARK  154  A    between atoms: _380  and  _381
REMARK  155  A    between atoms: _383  and  _385
REMARK  156  A    between atoms: _385  and  _386
REMARK  157  A    between atoms: _385  and  _388
REMARK  158  A    between atoms: _388  and  _389
REMARK  159  A    between atoms: _392  and  _394
REMARK  160  A    between atoms: _394  and  _395
REMARK  161  A    between atoms: _394  and  _397
REMARK  162  A    between atoms: _397  and  _398
REMARK  163  A    between atoms: _398  and  _399
REMARK  164  A    between atoms: _399  and  _400
REMARK  165  A    between atoms: _409  and  _411
REMARK  166  A    between atoms: _411  and  _412
REMARK  167  A    between atoms: _411  and  _414
REMARK  168  A    between atoms: _414  and  _415
REMARK  169  A    between atoms: _420  and  _422
REMARK  170  A    between atoms: _422  and  _423
REMARK  171  A    between atoms: _422  and  _425
REMARK  172  A    between atoms: _425  and  _426
REMARK  173  A    between atoms: _429  and  _431
REMARK  174  A    between atoms: _431  and  _432
REMARK  175  A    between atoms: _431  and  _434
REMARK  176  A    between atoms: _434  and  _435
REMARK  177  A    between atoms: _440  and  _441
REMARK  178  A    between atoms: _443  and  _445
REMARK  179  A    between atoms: _445  and  _446
REMARK  180  A    between atoms: _445  and  _448
REMARK  181  A    between atoms: _448  and  _449
REMARK  182  A    between atoms: _452  and  _454
REMARK  183  A    between atoms: _454  and  _455
REMARK  184  A    between atoms: _454  and  _457
REMARK  185  A    between atoms: _457  and  _458
REMARK  186  A    between atoms: _458  and  _459
REMARK  187  A    between atoms: _464  and  _466
REMARK  188  A    between atoms: _466  and  _467
REMARK  189  A    between atoms: _466  and  _469
REMARK  190  A    between atoms: _469  and  _470
REMARK  191  A    between atoms: _470  and  _471
REMARK  192  A    between atoms: _471  and  _472
REMARK  193  A    between atoms: _481  and  _483
REMARK  194  A    between atoms: _483  and  _484
REMARK  195  A    between atoms: _483  and  _486
REMARK  196  A    between atoms: _486  and  _487
REMARK  197  A    between atoms: _487  and  _488
REMARK  198  A    between atoms: _490  and  _492
REMARK  199  A    between atoms: _492  and  _493
REMARK  200  A    between atoms: _492  and  _495
REMARK  201  A    between atoms: _495  and  _496
REMARK  202  A    between atoms: _501  and  _502
REMARK  203  A    between atoms: _504  and  _506
REMARK  204  A    between atoms: _506  and  _507
REMARK  205  A    between atoms: _509  and  _511
REMARK  206  A    between atoms: _511  and  _512
REMARK  207  A    between atoms: _511  and  _514
REMARK  208  A    between atoms: _514  and  _515
REMARK  209  A    between atoms: _515  and  _869
REMARK  210  A    between atoms: _516  and  _518
REMARK  211  A    between atoms: _518  and  _519
REMARK  212  A    between atoms: _518  and  _521
REMARK  213  A    between atoms: _521  and  _522
REMARK  214  A    between atoms: _525  and  _527
REMARK  215  A    between atoms: _527  and  _528
REMARK  216  A    between atoms: _527  and  _530
REMARK  217  A    between atoms: _530  and  _531
REMARK  218  A    between atoms: _531  and  _532
REMARK  219  A    between atoms: _537  and  _539
REMARK  220  A    between atoms: _539  and  _540
REMARK  221  A    between atoms: _539  and  _542
REMARK  222  A    between atoms: _542  and  _543
REMARK  223  A    between atoms: _545  and  _547
REMARK  224  A    between atoms: _547  and  _548
REMARK  225  A    between atoms: _551  and  _553
REMARK  226  A    between atoms: _553  and  _554
REMARK  227  A    between atoms: _553  and  _556
REMARK  228  A    between atoms: _556  and  _557
REMARK  229  A    between atoms: _562  and  _563
REMARK  230  A    between atoms: _565  and  _567
REMARK  231  A    between atoms: _567  and  _568
REMARK  232  A    between atoms: _567  and  _570
REMARK  233  A    between atoms: _570  and  _571
REMARK  234  A    between atoms: _576  and  _577
REMARK  235  A    between atoms: _579  and  _581
REMARK  236  A    between atoms: _581  and  _582
REMARK  237  A    between atoms: _581  and  _584
REMARK  238  A    between atoms: _584  and  _585
REMARK  239  A    between atoms: _588  and  _590
REMARK  240  A    between atoms: _590  and  _591
REMARK  241  A    between atoms: _594  and  _596
REMARK  242  A    between atoms: _596  and  _597
REMARK  243  A    between atoms: _596  and  _599
REMARK  244  A    between atoms: _599  and  _600
REMARK  245  A    between atoms: _610  and  _612
REMARK  246  A    between atoms: _612  and  _613
REMARK  247  A    between atoms: _616  and  _618
REMARK  248  A    between atoms: _618  and  _619
REMARK  249  A    between atoms: _622  and  _624
REMARK  250  A    between atoms: _624  and  _625
REMARK  251  A    between atoms: _624  and  _627
REMARK  252  A    between atoms: _627  and  _628
REMARK  253  A    between atoms: _628  and  _629
REMARK  254  A    between atoms: _634  and  _636
REMARK  255  A    between atoms: _636  and  _637
REMARK  256  A    between atoms: _636  and  _639
REMARK  257  A    between atoms: _639  and  _640
REMARK  258  A    between atoms: _643  and  _645
REMARK  259  A    between atoms: _645  and  _646
REMARK  260  A    between atoms: _645  and  _648
REMARK  261  A    between atoms: _648  and  _649
REMARK  262  A    between atoms: _652  and  _654
REMARK  263  A    between atoms: _654  and  _655
REMARK  264  A    between atoms: _654  and  _657
REMARK  265  A    between atoms: _657  and  _658
REMARK  266  A    between atoms: _658  and  _659
REMARK  267  A    between atoms: _664  and  _666
REMARK  268  A    between atoms: _666  and  _667
REMARK  269  A    between atoms: _666  and  _669
REMARK  270  A    between atoms: _669  and  _670
REMARK  271  A    between atoms: _670  and  _671
REMARK  272  A    between atoms: _671  and  _672
REMARK  273  A    between atoms: _681  and  _683
REMARK  274  A    between atoms: _683  and  _684
REMARK  275  A    between atoms: _683  and  _686
REMARK  276  A    between atoms: _686  and  _687
REMARK  277  A    between atoms: _687  and  _688
REMARK  278  A    between atoms: _688  and  _689
REMARK  279  A    between atoms: _689  and  _690
REMARK  280  A    between atoms: _694  and  _696
REMARK  281  A    between atoms: _696  and  _697
REMARK  282  A    between atoms: _696  and  _699
REMARK  283  A    between atoms: _699  and  _700
REMARK  284  A    between atoms: _710  and  _712
REMARK  285  A    between atoms: _712  and  _713
REMARK  286  A    between atoms: _712  and  _715
REMARK  287  A    between atoms: _715  and  _716
REMARK  288  A    between atoms: _716  and  _717
REMARK  289  A    between atoms: _720  and  _722
REMARK  290  A    between atoms: _722  and  _723
REMARK  291  A    between atoms: _726  and  _728
REMARK  292  A    between atoms: _728  and  _729
REMARK  293  A    between atoms: _732  and  _734
REMARK  294  A    between atoms: _734  and  _735
REMARK  295  A    between atoms: _734  and  _737
REMARK  296  A    between atoms: _737  and  _738
REMARK  297  A    between atoms: _738  and  _739
REMARK  298  A    between atoms: _739  and  _740
REMARK  299  A    between atoms: _749  and  _751
REMARK  300  A    between atoms: _751  and  _752
REMARK  301  A    between atoms: _751  and  _754
REMARK  302  A    between atoms: _754  and  _755
REMARK  303  A    between atoms: _755  and  _756
REMARK  304  A    between atoms: _759  and  _761
REMARK  305  A    between atoms: _761  and  _762
REMARK  306  A    between atoms: _765  and  _767
REMARK  307  A    between atoms: _767  and  _768
REMARK  308  A    between atoms: _767  and  _770
REMARK  309  A    between atoms: _770  and  _771
REMARK  310  A    between atoms: _771  and  _772
REMARK  311  A    between atoms: _775  and  _777
REMARK  312  A    between atoms: _777  and  _778
REMARK  313  A    between atoms: _777  and  _780
REMARK  314  A    between atoms: _780  and  _781
REMARK  315  A    between atoms: _781  and  _782
REMARK  316  A    between atoms: _787  and  _789
REMARK  317  A    between atoms: _789  and  _790
REMARK  318  A    between atoms: _789  and  _792
REMARK  319  A    between atoms: _792  and  _793
REMARK  320  A    between atoms: _803  and  _805
REMARK  321  A    between atoms: _805  and  _806
REMARK  322  A    between atoms: _805  and  _808
REMARK  323  A    between atoms: _808  and  _809
REMARK  324  A    between atoms: _809  and  _810
REMARK  325  A    between atoms: _810  and  _811
REMARK  326  A    between atoms: _820  and  _822
REMARK  327  A    between atoms: _822  and  _823
REMARK  328  A    between atoms: _826  and  _828
REMARK  329  A    between atoms: _828  and  _829
REMARK  330  A    between atoms: _828  and  _831
REMARK  331  A    between atoms: _831  and  _832
REMARK  332  A    between atoms: _837  and  _838
REMARK  333  A    between atoms: _840  and  _842
REMARK  334  A    between atoms: _842  and  _843
REMARK  335  A    between atoms: _842  and  _845
REMARK  336  A    between atoms: _845  and  _846
REMARK  337  A    between atoms: _849  and  _851
REMARK  338  A    between atoms: _851  and  _852
REMARK  339  A    between atoms: _854  and  _856
REMARK  340  A    between atoms: _856  and  _857
REMARK  341  A    between atoms: _856  and  _859
REMARK  342  A    between atoms: _859  and  _860
REMARK  343  A    between atoms: _863  and  _865
REMARK  344  A    between atoms: _865  and  _866
REMARK  345  A    between atoms: _865  and  _868
REMARK  346  A    between atoms: _868  and  _869
REMARK  347  A    between atoms: _870  and  _872
REMARK  348  A    between atoms: _872  and  _873
REMARK  349  A    between atoms: _872  and  _875
REMARK  350  A    between atoms: _878  and  _880
REMARK  351  A    between atoms: _880  and  _881
REMARK  352  A    between atoms: _880  and  _883
REMARK  353  A    between atoms: _883  and  _884
REMARK  354  A    between atoms: _884  and  _885
REMARK  355  A    between atoms: _888  and  _890
REMARK  356  A    between atoms: _890  and  _891
REMARK  357  A    between atoms: _890  and  _893
REMARK  358  A    between atoms: _893  and  _894
REMARK  359  A    between atoms: _904  and  _906
REMARK  360  A    between atoms: _906  and  _907
REMARK  361  A    between atoms: _906  and  _909
REMARK  362  A    between atoms: _909  and  _910
REMARK  363  A    between atoms: _913  and  _915
REMARK  364  A    between atoms: _915  and  _916
REMARK  365  A    between atoms: _915  and  _918
REMARK  366  A    between atoms: _918  and  _919
REMARK  367  A    between atoms: _919  and  _920
REMARK  368  A    between atoms: _920  and  _921
REMARK  369  A    between atoms: _930  and  _932
REMARK  370  A    between atoms: _932  and  _933
REMARK  371  A    between atoms: _932  and  _935
REMARK  372  A    between atoms: _935  and  _936
REMARK  373  A    between atoms: _941  and  _942
REMARK  374  A    between atoms: _944  and  _946
REMARK  375  A    between atoms: _946  and  _947
REMARK  376  A    between atoms: _946  and  _949
REMARK  377  A    between atoms: _949  and  _950
REMARK                            x       y       z     vdW  Elec       q    Type
REMARK                         _______ _______ _______ _____ _____    ______ ____
ROOT
ATOM      1  CA  GLU A   6      16.053  33.314  39.838  0.00  0.00    +0.149 C 
ENDROOT
BRANCH   1   4
ATOM      2  C   ARG A   5      16.732  32.937  42.165  0.00  0.00    +0.241 C 
ATOM      3  O   ARG A   5      17.925  32.872  41.854  0.00  0.00    -0.273 OA
ATOM      4  N   GLU A   6      15.764  33.164  41.289  0.00  0.00    -0.297 N 
ATOM      5  H   GLU A   6      14.782  33.239  41.623  0.00  0.00    +0.150 HD
BRANCH   2   6
ATOM      6  CA  ARG A   5      16.286  32.693  43.619  0.00  0.00    +0.149 C 
BRANCH   6   8
ATOM      7  C   ASP A   4      15.729  35.041  44.020  0.00  0.00    +0.241 C 
ATOM      8  N   ARG A   5      15.366  33.759  44.039  0.00  0.00    -0.297 N 
ATOM      9  H   ARG A   5      14.409  33.507  44.359  0.00  0.00    +0.150 HD
ATOM     10  O   ASP A   4      16.861  35.419  43.703  0.00  0.00    -0.273 OA
BRANCH   7  11
ATOM     11  CA  ASP A   4      14.672  36.055  44.433  0.00  0.00    +0.160 C 
BRANCH  11  13
ATOM     12  C   TRP A   3      13.197  35.909  42.473  0.00  0.00    +0.241 C 
ATOM     13  N   ASP A   4      13.383  35.794  43.787  0.00  0.00    -0.297 N 
ATOM     14  H   ASP A   4      12.578  35.507  44.380  0.00  0.00    +0.150 HD
ATOM     15  O   TRP A   3      14.072  36.294  41.694  0.00  0.00    -0.273 OA
BRANCH  12  16
ATOM     16  CA  TRP A   3      11.817  35.538  41.958  0.00  0.00    +0.153 C 
BRANCH  16  18
ATOM     17  C   TYR A   2      11.751  33.233  42.764  0.00  0.00    +0.241 C 
ATOM     18  N   TRP A   3      11.188  34.439  42.719  0.00  0.00    -0.297 N 
ATOM     19  H   TRP A   3      10.296  34.609  43.225  0.00  0.00    +0.150 HD
ATOM     20  O   TYR A   2      12.856  33.007  42.276  0.00  0.00    -0.273 OA
BRANCH  17  21
ATOM     21  CA  TYR A   2      10.993  32.124  43.482  0.00  0.00    +0.153 C 
BRANCH  21  24
ATOM     22  C   GLU A   1      11.749  32.727  45.716  0.00  0.00    +0.238 C 
ATOM     23  O   GLU A   1      12.943  32.539  45.431  0.00  0.00    -0.274 OA
ATOM     24  N   TYR A   2      10.751  32.507  44.871  0.00  0.00    -0.297 N 
ATOM     25  H   TYR A   2       9.772  32.610  45.205  0.00  0.00    +0.150 HD
BRANCH  22  26
ATOM     26  CA  GLU A   1      11.324  33.224  47.100  0.00  0.00    +0.145 C 
BRANCH  26  27
ATOM     27  N   GLU A   1      10.242  34.206  46.961  0.00  0.00    -0.238 NA
ATOM     28  H   GLU A   1       9.326  33.987  47.402  0.00  0.00    +0.142 HD
ENDBRANCH  26  27
BRANCH  26  29
ATOM     29  CB  GLU A   1      10.838  32.029  47.928  0.00  0.00    +0.038 C 
BRANCH  29  30
ATOM     30  CG  GLU A   1      10.097  32.411  49.220  0.00  0.00    +0.116 C 
BRANCH  30  31
ATOM     31  CD  GLU A   1       8.660  32.894  48.980  0.00  0.00    +0.365 C 
ATOM     32  OE2 GLU A   1       8.292  33.956  49.517  0.00  0.00    -0.246 OA
ATOM     33  OE1 GLU A   1       7.890  32.232  48.253  0.00  0.00    -0.246 OA
ENDBRANCH  30  31
ENDBRANCH  29  30
ENDBRANCH  26  29
ENDBRANCH  22  26
ENDBRANCH  21  24
BRANCH  21  34
ATOM     34  CB  TYR A   2       9.668  31.807  42.791  0.00  0.00    +0.055 C 
BRANCH  34  35
ATOM     35  CG  TYR A   2       9.824  31.405  41.320  0.00  0.00    -0.020 A 
ATOM     36  CD2 TYR A   2       9.896  30.065  40.960  0.00  0.00    -0.001 A 
ATOM     37  CE2 TYR A   2      10.032  29.679  39.608  0.00  0.00    +0.036 A 
ATOM     38  CZ  TYR A   2      10.097  30.638  38.619  0.00  0.00    +0.134 A 
ATOM     39  CE1 TYR A   2      10.035  31.989  38.932  0.00  0.00    +0.036 A 
ATOM     40  CD1 TYR A   2       9.895  32.377  40.308  0.00  0.00    -0.001 A 
BRANCH  38  41
ATOM     41  OH  TYR A   2      10.229  30.218  37.299  0.00  0.00    -0.506 OA
ATOM     42  HH  TYR A   2       9.454  29.652  37.055  0.00  0.00    +0.292 HD
ENDBRANCH  38  41
ENDBRANCH  34  35
ENDBRANCH  21  34
ENDBRANCH  17  21
ENDBRANCH  16  18
BRANCH  16  43
ATOM     43  CB  TRP A   3      10.874  36.752  41.860  0.00  0.00    +0.057 C 
BRANCH  43  44
ATOM     44  CG  TRP A   3       9.595  36.328  41.223  0.00  0.00    -0.002 A 
ATOM     45  CD1 TRP A   3       8.376  36.092  41.839  0.00  0.00    +0.068 A 
ATOM     46  NE1 TRP A   3       7.462  35.664  40.904  0.00  0.00    -0.352 N 
ATOM     47  HE1 TRP A   3       6.466  35.433  41.095  0.00  0.00    +0.166 HD
ATOM     48  CE2 TRP A   3       8.078  35.590  39.675  0.00  0.00    +0.056 A 
ATOM     49  CZ2 TRP A   3       7.560  35.206  38.433  0.00  0.00    +0.017 A 
ATOM     50  CH2 TRP A   3       8.409  35.236  37.340  0.00  0.00    +0.001 A 
ATOM     51  CZ3 TRP A   3       9.755  35.626  37.470  0.00  0.00    +0.000 A 
ATOM     52  CE3 TRP A   3      10.273  36.012  38.718  0.00  0.00    +0.001 A 
ATOM     53  CD2 TRP A   3       9.416  36.006  39.844  0.00  0.00    +0.013 A 
ENDBRANCH  43  44
ENDBRANCH  16  43
ENDBRANCH  12  16
ENDBRANCH  11  13
BRANCH  11  54
ATOM     54  CB  ASP A   4      14.532  36.013  45.958  0.00  0.00    +0.143 C 
BRANCH  54  55
ATOM     55  CG  ASP A   4      13.986  37.299  46.537  0.00  0.00    +0.367 C 
ATOM     56  OD2 ASP A   4      13.880  37.472  47.771  0.00  0.00    -0.246 OA
ATOM     57  OD1 ASP A   4      13.629  38.218  45.775  0.00  0.00    -0.246 OA
ENDBRANCH  54  55
ENDBRANCH  11  54
ENDBRANCH   7  11
ENDBRANCH   6   8
BRANCH   6  58
ATOM     58  CB  ARG A   5      15.621  31.317  43.699  0.00  0.00    +0.033 C 
BRANCH  58  59
ATOM     59  CG  ARG A   5      16.519  30.175  43.247  0.00  0.00    +0.045 C 
BRANCH  59  60
ATOM     60  CD  ARG A   5      15.738  28.902  42.905  0.00  0.00    +0.174 C 
BRANCH  60  61
ATOM     61  NE  ARG A   5      16.578  27.726  42.678  0.00  0.00    -0.265 N 
ATOM     62  HE  ARG A   5      16.944  27.230  43.515  0.00  0.00    +0.259 HD
ATOM     63  CZ  ARG A   5      16.911  27.241  41.482  0.00  0.00    +0.342 C 
ATOM     64  NH2 ARG A   5      17.647  26.131  41.407  0.00  0.00    -0.292 N 
ATOM     65 HH21 ARG A   5      17.956  25.652  42.277  0.00  0.00    +0.255 HD
ATOM     66 HH22 ARG A   5      17.912  25.745  40.479  0.00  0.00    +0.255 HD
ATOM     67  NH1 ARG A   5      16.525  27.864  40.363  0.00  0.00    -0.292 N 
ATOM     68 HH11 ARG A   5      15.960  28.735  40.421  0.00  0.00    +0.255 HD
ATOM     69 HH12 ARG A   5      16.790  27.477  39.435  0.00  0.00    +0.255 HD
ENDBRANCH  60  61
ENDBRANCH  59  60
ENDBRANCH  58  59
ENDBRANCH   6  58
ENDBRANCH   2   6
ENDBRANCH   1   4
BRANCH   1  70
ATOM     70  C   GLU A   6      16.868  34.555  39.537  0.00  0.00    +0.241 C 
ATOM     71  N   THR A   7      16.547  35.656  40.214  0.00  0.00    -0.295 N 
ATOM     72  H   THR A   7      15.716  35.653  40.839  0.00  0.00    +0.150 HD
ATOM     73  O   GLU A   6      17.785  34.534  38.709  0.00  0.00    -0.273 OA
BRANCH  71  74
ATOM     74  CA  THR A   7      17.354  36.872  40.086  0.00  0.00    +0.176 C 
BRANCH  74  75
ATOM     75  C   THR A   7      18.801  36.661  40.539  0.00  0.00    +0.243 C 
ATOM     76  N   GLN A   8      18.992  36.051  41.715  0.00  0.00    -0.297 N 
ATOM     77  H   GLN A   8      18.175  35.749  42.284  0.00  0.00    +0.150 HD
ATOM     78  O   THR A   7      19.762  37.043  39.823  0.00  0.00    -0.273 OA
BRANCH  76  79
ATOM     79  CA  GLN A   8      20.356  35.809  42.200  0.00  0.00    +0.149 C 
BRANCH  79  80
ATOM     80  C   GLN A   8      21.173  34.913  41.268  0.00  0.00    +0.241 C 
ATOM     81  O   GLN A   8      22.335  35.214  40.970  0.00  0.00    -0.273 OA
ATOM     82  N   ILE A   9      20.560  33.827  40.804  0.00  0.00    -0.297 N 
ATOM     83  H   ILE A   9      19.585  33.615  41.098  0.00  0.00    +0.150 HD
BRANCH  82  84
ATOM     84  CA  ILE A   9      21.256  32.932  39.882  0.00  0.00    +0.149 C 
BRANCH  84  85
ATOM     85  C   ILE A   9      21.670  33.727  38.637  0.00  0.00    +0.241 C 
ATOM     86  O   ILE A   9      22.803  33.608  38.164  0.00  0.00    -0.273 OA
ATOM     87  N   SER A  10      20.765  34.564  38.138  0.00  0.00    -0.295 N 
ATOM     88  H   SER A  10      19.871  34.714  38.647  0.00  0.00    +0.150 HD
BRANCH  87  89
ATOM     89  CA  SER A  10      21.006  35.274  36.890  0.00  0.00    +0.178 C 
BRANCH  89  90
ATOM     90  C   SER A  10      22.095  36.355  37.086  0.00  0.00    +0.243 C 
ATOM     91  N   LYS A  11      22.099  36.999  38.254  0.00  0.00    -0.297 N 
ATOM     92  H   LYS A  11      21.329  36.829  38.933  0.00  0.00    +0.150 HD
ATOM     93  O   SER A  10      22.918  36.588  36.200  0.00  0.00    -0.273 OA
BRANCH  91  94
ATOM     94  CA  LYS A  11      23.176  37.949  38.602  0.00  0.00    +0.149 C 
BRANCH  94  95
ATOM     95  C   LYS A  11      24.532  37.244  38.754  0.00  0.00    +0.241 C 
ATOM     96  N   THR A  12      24.541  36.073  39.387  0.00  0.00    -0.295 N 
ATOM     97  H   THR A  12      23.677  35.751  39.867  0.00  0.00    +0.150 HD
ATOM     98  O   LYS A  11      25.565  37.766  38.301  0.00  0.00    -0.273 OA
BRANCH  96  99
ATOM     99  CA  THR A  12      25.731  35.230  39.425  0.00  0.00    +0.176 C 
BRANCH  99 100
ATOM    100  C   THR A  12      26.186  34.853  38.012  0.00  0.00    +0.243 C 
ATOM    101  O   THR A  12      27.370  34.951  37.708  0.00  0.00    -0.273 OA
ATOM    102  N   ASN A  13      25.249  34.421  37.170  0.00  0.00    -0.298 N 
ATOM    103  H   ASN A  13      24.269  34.319  37.504  0.00  0.00    +0.150 HD
BRANCH 102 104
ATOM    104  CA  ASN A  13      25.573  34.088  35.787  0.00  0.00    +0.146 C 
BRANCH 104 105
ATOM    105  C   ASN A  13      26.135  35.262  35.017  0.00  0.00    +0.227 C 
ATOM    106  O   ASN A  13      27.050  35.091  34.201  0.00  0.00    -0.286 OA
ENDBRANCH 104 105
BRANCH 104 107
ATOM    107  CB  ASN A  13      24.341  33.516  35.044  0.00  0.00    +0.112 C 
BRANCH 107 108
ATOM    108  CG  ASN A  13      23.967  32.090  35.476  0.00  0.00    +0.222 C 
ATOM    109  ND2 ASN A  13      24.925  31.366  35.948  0.00  0.00    -0.329 N 
ATOM    110 HD21 ASN A  13      24.738  30.389  36.250  0.00  0.00    +0.145 HD
ATOM    111 HD22 ASN A  13      25.884  31.760  36.027  0.00  0.00    +0.145 HD
ATOM    112  OD1 ASN A  13      22.795  31.663  35.361  0.00  0.00    -0.275 OA
ENDBRANCH 107 108
ENDBRANCH 104 107
ENDBRANCH 102 104
ENDBRANCH  99 100
BRANCH  99 113
ATOM    113  CB  THR A  12      25.480  33.962  40.244  0.00  0.00    +0.137 C 
ATOM    114  CG2 THR A  12      26.710  33.059  40.251  0.00  0.00    +0.034 C 
BRANCH 113 115
ATOM    115  OG1 THR A  12      25.288  34.343  41.622  0.00  0.00    -0.382 OA
ATOM    116  HG1 THR A  12      25.124  33.533  42.167  0.00  0.00    +0.210 HD
ENDBRANCH 113 115
ENDBRANCH  99 113
ENDBRANCH  96  99
ENDBRANCH  94  95
BRANCH  94 117
ATOM    117  CB  LYS A  11      22.840  38.734  39.884  0.00  0.00    +0.029 C 
BRANCH 117 118
ATOM    118  CG  LYS A  11      21.819  39.823  39.635  0.00  0.00    +0.000 C 
BRANCH 118 119
ATOM    119  CD  LYS A  11      21.576  40.686  40.857  0.00  0.00    -0.024 C 
BRANCH 119 120
ATOM    120  CE  LYS A  11      20.741  41.888  40.426  0.00  0.00    -0.086 C 
BRANCH 120 121
ATOM    121  NZ  LYS A  11      20.888  43.079  41.338  0.00  0.00    +0.380 N 
ATOM    122  HZ1 LYS A  11      20.587  42.818  42.299  0.00  0.00    -0.089 HD
ATOM    123  HZ2 LYS A  11      21.883  43.380  41.355  0.00  0.00    -0.089 HD
ATOM    124  HZ3 LYS A  11      20.295  43.858  40.987  0.00  0.00    -0.089 HD
ENDBRANCH 120 121
ENDBRANCH 119 120
ENDBRANCH 118 119
ENDBRANCH 117 118
ENDBRANCH  94 117
ENDBRANCH  91  94
ENDBRANCH  89  90
BRANCH  89 125
ATOM    125  CB  SER A  10      19.712  35.883  36.374  0.00  0.00    +0.166 C 
BRANCH 125 126
ATOM    126  OG  SER A  10      18.760  34.868  36.046  0.00  0.00    -0.380 OA
ATOM    127  H   SER A  10      19.135  34.279  35.344  0.00  0.00    +0.211 HD
ENDBRANCH 125 126
ENDBRANCH  89 125
ENDBRANCH  87  89
ENDBRANCH  84  85
BRANCH  84 128
ATOM    128  CB  ILE A   9      20.374  31.688  39.543  0.00  0.00    +0.027 C 
ATOM    129  CG2 ILE A   9      20.946  30.939  38.277  0.00  0.00    +0.002 C 
BRANCH 128 130
ATOM    130  CG1 ILE A   9      20.298  30.748  40.763  0.00  0.00    +0.002 C 
ATOM    131  CD1 ILE A   9      19.301  29.597  40.588  0.00  0.00    +0.000 C 
ENDBRANCH 128 130
ENDBRANCH  84 128
ENDBRANCH  82  84
ENDBRANCH  79  80
BRANCH  79 132
ATOM    132  CB  GLN A   8      20.389  35.267  43.637  0.00  0.00    +0.039 C 
BRANCH 132 133
ATOM    133  CG  GLN A   8      21.755  35.419  44.328  0.00  0.00    +0.087 C 
BRANCH 133 134
ATOM    134  CD  GLN A   8      22.537  36.672  43.901  0.00  0.00    +0.219 C 
ATOM    135  OE1 GLN A   8      22.152  37.812  44.232  0.00  0.00    -0.275 OA
ATOM    136  NE2 GLN A   8      23.631  36.465  43.164  0.00  0.00    -0.329 N 
ATOM    137 HE21 GLN A   8      23.913  35.496  42.913  0.00  0.00    +0.145 HD
ATOM    138 HE22 GLN A   8      24.201  37.273  42.841  0.00  0.00    +0.145 HD
ENDBRANCH 133 134
ENDBRANCH 132 133
ENDBRANCH  79 132
ENDBRANCH  76  79
ENDBRANCH  74  75
BRANCH  74 139
ATOM    139  CB  THR A   7      16.671  38.028  40.841  0.00  0.00    +0.137 C 
ATOM    140  CG2 THR A   7      17.491  39.321  40.698  0.00  0.00    +0.034 C 
BRANCH 139 141
ATOM    141  OG1 THR A   7      15.442  38.316  40.173  0.00  0.00    -0.382 OA
ATOM    142  HG1 THR A   7      14.866  37.511  40.182  0.00  0.00    +0.210 HD
ENDBRANCH 139 141
ENDBRANCH  74 139
ENDBRANCH  71  74
ENDBRANCH   1  70
BRANCH   1 143
ATOM    143  CB  GLU A   6      14.752  33.313  39.030  0.00  0.00    +0.041 C 
BRANCH 143 144
ATOM    144  CG  GLU A   6      13.867  32.096  39.257  0.00  0.00    +0.116 C 
BRANCH 144 145
ATOM    145  CD  GLU A   6      14.586  30.773  39.029  0.00  0.00    +0.365 C 
ATOM    146  OE2 GLU A   6      15.342  30.312  39.912  0.00  0.00    -0.246 OA
ATOM    147  OE1 GLU A   6      14.355  30.183  37.964  0.00  0.00    -0.246 OA
ENDBRANCH 144 145
ENDBRANCH 143 144
ENDBRANCH   1 143
TORSDOF 61
REMARK  Name = ../refined-set-2016/1xr9/1xr9_pocket.pdb
REMARK  377 active torsions:
REMARK  status: ('A' for Active; 'I' for Inactive)
REMARK    1  A    between atoms: _1  and  _3
REMARK    2  A    between atoms: _3  and  _4
REMARK    3  A    between atoms: _3  and  _6
REMARK    4  A    between atoms: _6  and  _7
REMARK    5  A    between atoms: _7  and  _8
REMARK    6  A    between atoms: _10  and  _12
REMARK    7  A    between atoms: _12  and  _13
REMARK    8  A    between atoms: _12  and  _15
REMARK    9  A    between atoms: _15  and  _16
REMARK   10  A    between atoms: _16  and  _17
REMARK   11  A    between atoms: _17  and  _18
REMARK   12  A    between atoms: _27  and  _29
REMARK   13  A    between atoms: _29  and  _30
REMARK   14  A    between atoms: _29  and  _32
REMARK   15  A    between atoms: _32  and  _33
REMARK   16  A    between atoms: _38  and  _39
REMARK   17  A    between atoms: _41  and  _43
REMARK   18  A    between atoms: _43  and  _44
REMARK   19  A    between atoms: _43  and  _46
REMARK   20  A    between atoms: _46  and  _47
REMARK   21  A    between atoms: _53  and  _55
REMARK   22  A    between atoms: _55  and  _56
REMARK   23  A    between atoms: _55  and  _58
REMARK   24  A    between atoms: _58  and  _59
REMARK   25  A    between atoms: _64  and  _65
REMARK   26  A    between atoms: _67  and  _69
REMARK   27  A    between atoms: _69  and  _70
REMARK   28  A    between atoms: _69  and  _72
REMARK   29  A    between atoms: _72  and  _73
REMARK   30  A    between atoms: _79  and  _81
REMARK   31  A    between atoms: _81  and  _82
REMARK   32  A    between atoms: _85  and  _87
REMARK   33  A    between atoms: _87  and  _88
REMARK   34  A    between atoms: _87  and  _90
REMARK   35  A    between atoms: _93  and  _95
REMARK   36  A    between atoms: _95  and  _96
REMARK   37  A    between atoms: _98  and  _100
REMARK   38  A    between atoms: _100  and  _101
REMARK   39  A    between atoms: _100  and  _103
REMARK   40  A    between atoms: _106  and  _108
REMARK   41  A    between atoms: _108  and  _109
REMARK   42  A    between atoms: _108  and  _111
REMARK   43  A    between atoms: _111  and  _112
REMARK   44  A    between atoms: _118  and  _120
REMARK   45  A    between atoms: _120  and  _121
REMARK   46  A    between atoms: _120  and  _123
REMARK   47  A    between atoms: _126  and  _128
REMARK   48  A    between atoms: _128  and  _129
REMARK   49  A    between atoms: _128  and  _131
REMARK   50  A    between atoms: _131  and  _132
REMARK   51  A    between atoms: _138  and  _140
REMARK   52  A    between atoms: _140  and  _141
REMARK   53  A    between atoms: _140  and  _143
REMARK   54  A    between atoms: _143  and  _144
REMARK   55  A    between atoms: _144  and  _145
REMARK   56  A    between atoms: _147  and  _149
REMARK   57  A    between atoms: _149  and  _150
REMARK   58  A    between atoms: _149  and  _152
REMARK   59  A    between atoms: _152  and  _153
REMARK   60  A    between atoms: _156  and  _158
REMARK   61  A    between atoms: _158  and  _159
REMARK   62  A    between atoms: _158  and  _161
REMARK   63  A    between atoms: _161  and  _162
REMARK   64  A    between atoms: _162  and  _163
REMARK   65  A    between atoms: _166  and  _168
REMARK   66  A    between atoms: _168  and  _169
REMARK   67  A    between atoms: _168  and  _171
REMARK   68  A    between atoms: _171  and  _172
REMARK   69  A    between atoms: _172  and  _173
REMARK   70  A    between atoms: _176  and  _178
REMARK   71  A    between atoms: _178  and  _179
REMARK   72  A    between atoms: _178  and  _181
REMARK   73  A    between atoms: _181  and  _182
REMARK   74  A    between atoms: _187  and  _188
REMARK   75  A    between atoms: _190  and  _192
REMARK   76  A    between atoms: _192  and  _193
REMARK   77  A    between atoms: _192  and  _195
REMARK   78  A    between atoms: _195  and  _196
REMARK   79  A    between atoms: _206  and  _208
REMARK   80  A    between atoms: _208  and  _209
REMARK   81  A    between atoms: _208  and  _211
REMARK   82  A    between atoms: _211  and  _212
REMARK   83  A    between atoms: _215  and  _217
REMARK   84  A    between atoms: _217  and  _218
REMARK   85  A    between atoms: _217  and  _220
REMARK   86  A    between atoms: _220  and  _221
REMARK   87  A    between atoms: _221  and  _222
REMARK   88  A    between atoms: _222  and  _223
REMARK   89  A    between atoms: _232  and  _234
REMARK   90  A    between atoms: _234  and  _235
REMARK   91  A    between atoms: _234  and  _237
REMARK   92  A    between atoms: _237  and  _238
REMARK   93  A    between atoms: _238  and  _239
REMARK   94  A    between atoms: _242  and  _244
REMARK   95  A    between atoms: _244  and  _245
REMARK   96  A    between atoms: _244  and  _247
REMARK   97  A    between atoms: _247  and  _248
REMARK   98  A    between atoms: _251  and  _253
REMARK   99  A    between atoms: _253  and  _254
REMARK  100  A    between atoms: _253  and  _256
REMARK  101  A    between atoms: _256  and  _257
REMARK  102  A    between atoms: _257  and  _258
REMARK  103  A    between atoms: _263  and  _265
REMARK  104  A    between atoms: _265  and  _266
REMARK  105  A    between atoms: _265  and  _268
REMARK  106  A    between atoms: _268  and  _269
REMARK  107  A    between atoms: _272  and  _274
REMARK  108  A    between atoms: _274  and  _275
REMARK  109  A    between atoms: _274  and  _277
REMARK  110  A    between atoms: _277  and  _278
REMARK  111  A    between atoms: _280  and  _282
REMARK  112  A    between atoms: _282  and  _283
REMARK  113  A    between atoms: _282  and  _285
REMARK  114  A    between atoms: _285  and  _286
REMARK  115  A    between atoms: _286  and  _287
REMARK  116  A    between atoms: _287  and  _288
REMARK  117  A    between atoms: _288  and  _289
REMARK  118  A    between atoms: _293  and  _295
REMARK  119  A    between atoms: _295  and  _296
REMARK  120  A    between atoms: _295  and  _298
REMARK  121  A    between atoms: _298  and  _299
REMARK  122  A    between atoms: _302  and  _304
REMARK  123  A    between atoms: _304  and  _305
REMARK  124  A    between atoms: _304  and  _307
REMARK  125  A    between atoms: _307  and  _308
REMARK  126  A    between atoms: _313  and  _315
REMARK  127  A    between atoms: _315  and  _316
REMARK  128  A    between atoms: _315  and  _318
REMARK  129  A    between atoms: _318  and  _319
REMARK  130  A    between atoms: _319  and  _320
REMARK  131  A    between atoms: _325  and  _327
REMARK  132  A    between atoms: _327  and  _328
REMARK  133  A    between atoms: _327  and  _330
REMARK  134  A    between atoms: _330  and  _331
REMARK  135  A    between atoms: _334  and  _336
REMARK  136  A    between atoms: _336  and  _337
REMARK  137  A    between atoms: _336  and  _339
REMARK  138  A    between atoms: _339  and  _340
REMARK  139  A    between atoms: _345  and  _346
REMARK  140  A    between atoms: _348  and  _350
REMARK  141  A    between atoms: _350  and  _351
REMARK  142  A    between atoms: _350  and  _353
REMARK  143  A    between atoms: _353  and  _354
REMARK  144  A    between atoms: _354  and  _355
REMARK  145  A    between atoms: _355  and  _356
REMARK  146  A    between atoms: _365  and  _367
REMARK  147  A    between atoms: _367  and  _368
REMARK  148  A    between atoms: _367  and  _370
REMARK  149  A    between atoms: _370  and  _371
REMARK  150  A    between atoms: _371  and  _372
REMARK  151  A    between atoms: _375  and  _377
REMARK  152  A    between atoms: _377  and  _378
REMARK  153  A    between atoms: _377  and  _380
REMARK  154  A    between atoms: _380  and  _381
REMARK  155  A    between atoms: _383  and  _385
REMARK  156  A    between atoms: _385  and  _386
REMARK  157  A    between atoms: _385  and  _388
REMARK  158  A    between atoms: _388  and  _389
REMARK  159  A    between atoms: _392  and  _394
REMARK  160  A    between atoms: _394  and  _395
REMARK  161  A    between atoms: _394  and  _397
REMARK  162  A    between atoms: _397  and  _398
REMARK  163  A    between atoms: _398  and  _399
REMARK  164  A    between atoms: _399  and  _400
REMARK  165  A    between atoms: _409  and  _411
REMARK  166  A    between atoms: _411  and  _412
REMARK  167  A    between atoms: _411  and  _414
REMARK  168  A    between atoms: _414  and  _415
REMARK  169  A    between atoms: _420  and  _422
REMARK  170  A    between atoms: _422  and  _423
REMARK  171  A    between atoms: _422  and  _425
REMARK  172  A    between atoms: _425  and  _426
REMARK  173  A    between atoms: _429  and  _431
REMARK  174  A    between atoms: _431  and  _432
REMARK  175  A    between atoms: _431  and  _434
REMARK  176  A    between atoms: _434  and  _435
REMARK  177  A    between atoms: _440  and  _441
REMARK  178  A    between atoms: _443  and  _445
REMARK  179  A    between atoms: _445  and  _446
REMARK  180  A    between atoms: _445  and  _448
REMARK  181  A    between atoms: _448  and  _449
REMARK  182  A    between atoms: _452  and  _454
REMARK  183  A    between atoms: _454  and  _455
REMARK  184  A    between atoms: _454  and  _457
REMARK  185  A    between atoms: _457  and  _458
REMARK  186  A    between atoms: _458  and  _459
REMARK  187  A    between atoms: _464  and  _466
REMARK  188  A    between atoms: _466  and  _467
REMARK  189  A    between atoms: _466  and  _469
REMARK  190  A    between atoms: _469  and  _470
REMARK  191  A    between atoms: _470  and  _471
REMARK  192  A    between atoms: _471  and  _472
REMARK  193  A    between atoms: _481  and  _483
REMARK  194  A    between atoms: _483  and  _484
REMARK  195  A    between atoms: _483  and  _486
REMARK  196  A    between atoms: _486  and  _487
REMARK  197  A    between atoms: _487  and  _488
REMARK  198  A    between atoms: _490  and  _492
REMARK  199  A    between atoms: _492  and  _493
REMARK  200  A    between atoms: _492  and  _495
REMARK  201  A    between atoms: _495  and  _496
REMARK  202  A    between atoms: _501  and  _502
REMARK  203  A    between atoms: _504  and  _506
REMARK  204  A    between atoms: _506  and  _507
REMARK  205  A    between atoms: _509  and  _511
REMARK  206  A    between atoms: _511  and  _512
REMARK  207  A    between atoms: _511  and  _514
REMARK  208  A    between atoms: _514  and  _515
REMARK  209  A    between atoms: _515  and  _869
REMARK  210  A    between atoms: _516  and  _518
REMARK  211  A    between atoms: _518  and  _519
REMARK  212  A    between atoms: _518  and  _521
REMARK  213  A    between atoms: _521  and  _522
REMARK  214  A    between atoms: _525  and  _527
REMARK  215  A    between atoms: _527  and  _528
REMARK  216  A    between atoms: _527  and  _530
REMARK  217  A    between atoms: _530  and  _531
REMARK  218  A    between atoms: _531  and  _532
REMARK  219  A    between atoms: _537  and  _539
REMARK  220  A    between atoms: _539  and  _540
REMARK  221  A    between atoms: _539  and  _542
REMARK  222  A    between atoms: _542  and  _543
REMARK  223  A    between atoms: _545  and  _547
REMARK  224  A    between atoms: _547  and  _548
REMARK  225  A    between atoms: _551  and  _553
REMARK  226  A    between atoms: _553  and  _554
REMARK  227  A    between atoms: _553  and  _556
REMARK  228  A    between atoms: _556  and  _557
REMARK  229  A    between atoms: _562  and  _563
REMARK  230  A    between atoms: _565  and  _567
REMARK  231  A    between atoms: _567  and  _568
REMARK  232  A    between atoms: _567  and  _570
REMARK  233  A    between atoms: _570  and  _571
REMARK  234  A    between atoms: _576  and  _577
REMARK  235  A    between atoms: _579  and  _581
REMARK  236  A    between atoms: _581  and  _582
REMARK  237  A    between atoms: _581  and  _584
REMARK  238  A    between atoms: _584  and  _585
REMARK  239  A    between atoms: _588  and  _590
REMARK  240  A    between atoms: _590  and  _591
REMARK  241  A    between atoms: _594  and  _596
REMARK  242  A    between atoms: _596  and  _597
REMARK  243  A    between atoms: _596  and  _599
REMARK  244  A    between atoms: _599  and  _600
REMARK  245  A    between atoms: _610  and  _612
REMARK  246  A    between atoms: _612  and  _613
REMARK  247  A    between atoms: _616  and  _618
REMARK  248  A    between atoms: _618  and  _619
REMARK  249  A    between atoms: _622  and  _624
REMARK  250  A    between atoms: _624  and  _625
REMARK  251  A    between atoms: _624  and  _627
REMARK  252  A    between atoms: _627  and  _628
REMARK  253  A    between atoms: _628  and  _629
REMARK  254  A    between atoms: _634  and  _636
REMARK  255  A    between atoms: _636  and  _637
REMARK  256  A    between atoms: _636  and  _639
REMARK  257  A    between atoms: _639  and  _640
REMARK  258  A    between atoms: _643  and  _645
REMARK  259  A    between atoms: _645  and  _646
REMARK  260  A    between atoms: _645  and  _648
REMARK  261  A    between atoms: _648  and  _649
REMARK  262  A    between atoms: _652  and  _654
REMARK  263  A    between atoms: _654  and  _655
REMARK  264  A    between atoms: _654  and  _657
REMARK  265  A    between atoms: _657  and  _658
REMARK  266  A    between atoms: _658  and  _659
REMARK  267  A    between atoms: _664  and  _666
REMARK  268  A    between atoms: _666  and  _667
REMARK  269  A    between atoms: _666  and  _669
REMARK  270  A    between atoms: _669  and  _670
REMARK  271  A    between atoms: _670  and  _671
REMARK  272  A    between atoms: _671  and  _672
REMARK  273  A    between atoms: _681  and  _683
REMARK  274  A    between atoms: _683  and  _684
REMARK  275  A    between atoms: _683  and  _686
REMARK  276  A    between atoms: _686  and  _687
REMARK  277  A    between atoms: _687  and  _688
REMARK  278  A    between atoms: _688  and  _689
REMARK  279  A    between atoms: _689  and  _690
REMARK  280  A    between atoms: _694  and  _696
REMARK  281  A    between atoms: _696  and  _697
REMARK  282  A    between atoms: _696  and  _699
REMARK  283  A    between atoms: _699  and  _700
REMARK  284  A    between atoms: _710  and  _712
REMARK  285  A    between atoms: _712  and  _713
REMARK  286  A    between atoms: _712  and  _715
REMARK  287  A    between atoms: _715  and  _716
REMARK  288  A    between atoms: _716  and  _717
REMARK  289  A    between atoms: _720  and  _722
REMARK  290  A    between atoms: _722  and  _723
REMARK  291  A    between atoms: _726  and  _728
REMARK  292  A    between atoms: _728  and  _729
REMARK  293  A    between atoms: _732  and  _734
REMARK  294  A    between atoms: _734  and  _735
REMARK  295  A    between atoms: _734  and  _737
REMARK  296  A    between atoms: _737  and  _738
REMARK  297  A    between atoms: _738  and  _739
REMARK  298  A    between atoms: _739  and  _740
REMARK  299  A    between atoms: _749  and  _751
REMARK  300  A    between atoms: _751  and  _752
REMARK  301  A    between atoms: _751  and  _754
REMARK  302  A    between atoms: _754  and  _755
REMARK  303  A    between atoms: _755  and  _756
REMARK  304  A    between atoms: _759  and  _761
REMARK  305  A    between atoms: _761  and  _762
REMARK  306  A    between atoms: _765  and  _767
REMARK  307  A    between atoms: _767  and  _768
REMARK  308  A    between atoms: _767  and  _770
REMARK  309  A    between atoms: _770  and  _771
REMARK  310  A    between atoms: _771  and  _772
REMARK  311  A    between atoms: _775  and  _777
REMARK  312  A    between atoms: _777  and  _778
REMARK  313  A    between atoms: _777  and  _780
REMARK  314  A    between atoms: _780  and  _781
REMARK  315  A    between atoms: _781  and  _782
REMARK  316  A    between atoms: _787  and  _789
REMARK  317  A    between atoms: _789  and  _790
REMARK  318  A    between atoms: _789  and  _792
REMARK  319  A    between atoms: _792  and  _793
REMARK  320  A    between atoms: _803  and  _805
REMARK  321  A    between atoms: _805  and  _806
REMARK  322  A    between atoms: _805  and  _808
REMARK  323  A    between atoms: _808  and  _809
REMARK  324  A    between atoms: _809  and  _810
REMARK  325  A    between atoms: _810  and  _811
REMARK  326  A    between atoms: _820  and  _822
REMARK  327  A    between atoms: _822  and  _823
REMARK  328  A    between atoms: _826  and  _828
REMARK  329  A    between atoms: _828  and  _829
REMARK  330  A    between atoms: _828  and  _831
REMARK  331  A    between atoms: _831  and  _832
REMARK  332  A    between atoms: _837  and  _838
REMARK  333  A    between atoms: _840  and  _842
REMARK  334  A    between atoms: _842  and  _843
REMARK  335  A    between atoms: _842  and  _845
REMARK  336  A    between atoms: _845  and  _846
REMARK  337  A    between atoms: _849  and  _851
REMARK  338  A    between atoms: _851  and  _852
REMARK  339  A    between atoms: _854  and  _856
REMARK  340  A    between atoms: _856  and  _857
REMARK  341  A    between atoms: _856  and  _859
REMARK  342  A    between atoms: _859  and  _860
REMARK  343  A    between atoms: _863  and  _865
REMARK  344  A    between atoms: _865  and  _866
REMARK  345  A    between atoms: _865  and  _868
REMARK  346  A    between atoms: _868  and  _869
REMARK  347  A    between atoms: _870  and  _872
REMARK  348  A    between atoms: _872  and  _873
REMARK  349  A    between atoms: _872  and  _875
REMARK  350  A    between atoms: _878  and  _880
REMARK  351  A    between atoms: _880  and  _881
REMARK  352  A    between atoms: _880  and  _883
REMARK  353  A    between atoms: _883  and  _884
REMARK  354  A    between atoms: _884  and  _885
REMARK  355  A    between atoms: _888  and  _890
REMARK  356  A    between atoms: _890  and  _891
REMARK  357  A    between atoms: _890  and  _893
REMARK  358  A    between atoms: _893  and  _894
REMARK  359  A    between atoms: _904  and  _906
REMARK  360  A    between atoms: _906  and  _907
REMARK  361  A    between atoms: _906  and  _909
REMARK  362  A    between atoms: _909  and  _910
REMARK  363  A    between atoms: _913  and  _915
REMARK  364  A    between atoms: _915  and  _916
REMARK  365  A    between atoms: _915  and  _918
REMARK  366  A    between atoms: _918  and  _919
REMARK  367  A    between atoms: _919  and  _920
REMARK  368  A    between atoms: _920  and  _921
REMARK  369  A    between atoms: _930  and  _932
REMARK  370  A    between atoms: _932  and  _933
REMARK  371  A    between atoms: _932  and  _935
REMARK  372  A    between atoms: _935  and  _936
REMARK  373  A    between atoms: _941  and  _942
REMARK  374  A    between atoms: _944  and  _946
REMARK  375  A    between atoms: _946  and  _947
REMARK  376  A    between atoms: _946  and  _949
REMARK  377  A    between atoms: _949  and  _950
REMARK                            x       y       z     vdW  Elec       q    Type
REMARK                         _______ _______ _______ _____ _____    ______ ____
ROOT
ATOM      1  CA  GLU A   5      34.679  35.571  33.039  0.00  0.00    +0.149 C 
ENDROOT
BRANCH   1   2
ATOM      2  C   GLU A   5      34.890  34.503  31.979  0.00  0.00    +0.241 C 
ATOM      3  N   SER A   6      33.804  33.829  31.631  0.00  0.00    -0.295 N 
ATOM      4  H   SER A   6      32.913  34.007  32.137  0.00  0.00    +0.150 HD
ATOM      5  O   GLU A   5      36.005  34.276  31.505  0.00  0.00    -0.273 OA
BRANCH   3   6
ATOM      6  CA  SER A   6      33.828  32.840  30.552  0.00  0.00    +0.178 C 
BRANCH   6   7
ATOM      7  C   SER A   6      34.195  33.458  29.198  0.00  0.00    +0.243 C 
ATOM      8  N   LEU A   7      33.563  34.574  28.835  0.00  0.00    -0.297 N 
ATOM      9  H   LEU A   7      32.809  34.966  29.435  0.00  0.00    +0.150 HD
ATOM     10  O   SER A   6      34.992  32.905  28.469  0.00  0.00    -0.273 OA
BRANCH   8  11
ATOM     11  CA  LEU A   7      33.940  35.255  27.572  0.00  0.00    +0.149 C 
BRANCH  11  12
ATOM     12  C   LEU A   7      35.424  35.663  27.573  0.00  0.00    +0.241 C 
ATOM     13  N   ARG A   8      35.950  36.150  28.700  0.00  0.00    -0.297 N 
ATOM     14  H   ARG A   8      35.345  36.316  29.530  0.00  0.00    +0.150 HD
ATOM     15  O   LEU A   7      36.073  35.557  26.553  0.00  0.00    -0.273 OA
BRANCH  13  16
ATOM     16  CA  ARG A   8      37.393  36.452  28.762  0.00  0.00    +0.149 C 
BRANCH  16  17
ATOM     17  C   ARG A   8      38.225  35.193  28.526  0.00  0.00    +0.241 C 
ATOM     18  N   ASN A   9      37.789  34.071  29.103  0.00  0.00    -0.297 N 
ATOM     19  H   ASN A   9      36.919  34.090  29.672  0.00  0.00    +0.150 HD
ATOM     20  O   ARG A   8      39.254  35.241  27.841  0.00  0.00    -0.273 OA
BRANCH  18  21
ATOM     21  CA  ASN A   9      38.532  32.798  28.941  0.00  0.00    +0.158 C 
BRANCH  21  22
ATOM     22  C   ASN A   9      38.509  32.351  27.489  0.00  0.00    +0.241 C 
ATOM     23  O   ASN A   9      39.544  31.952  26.943  0.00  0.00    -0.273 OA
ATOM     24  N   LEU A  10      37.335  32.440  26.868  0.00  0.00    -0.298 N 
ATOM     25  H   LEU A  10      36.522  32.836  27.381  0.00  0.00    +0.150 HD
BRANCH  24  26
ATOM     26  CA  LEU A  10      37.155  31.996  25.484  0.00  0.00    +0.137 C 
BRANCH  26  27
ATOM     27  C   LEU A  10      37.942  32.838  24.476  0.00  0.00    +0.227 C 
ATOM     28  O   LEU A  10      38.428  32.314  23.478  0.00  0.00    -0.286 OA
ENDBRANCH  26  27
BRANCH  26  29
ATOM     29  CB  LEU A  10      35.667  31.956  25.115  0.00  0.00    +0.028 C 
BRANCH  29  30
ATOM     30  CG  LEU A  10      34.935  30.623  25.324  0.00  0.00    +0.002 C 
ATOM     31  CD2 LEU A  10      35.077  30.051  26.737  0.00  0.00    +0.000 C 
ATOM     32  CD1 LEU A  10      35.420  29.651  24.295  0.00  0.00    +0.000 C 
ENDBRANCH  29  30
ENDBRANCH  26  29
ENDBRANCH  24  26
ENDBRANCH  21  22
BRANCH  21  33
ATOM     33  CB  ASN A   9      38.001  31.703  29.877  0.00  0.00    +0.114 C 
BRANCH  33  34
ATOM     34  CG  ASN A   9      38.283  32.022  31.340  0.00  0.00    +0.222 C 
ATOM     35  ND2 ASN A   9      37.608  31.333  32.259  0.00  0.00    -0.329 N 
ATOM     36 HD21 ASN A   9      37.740  31.545  33.269  0.00  0.00    +0.145 HD
ATOM     37 HD22 ASN A   9      36.949  30.583  31.967  0.00  0.00    +0.145 HD
ATOM     38  OD1 ASN A   9      39.080  32.925  31.624  0.00  0.00    -0.275 OA
ENDBRANCH  33  34
ENDBRANCH  21  33
ENDBRANCH  18  21
ENDBRANCH  16  17
BRANCH  16  39
ATOM     39  CB  ARG A   8      37.792  37.072  30.105  0.00  0.00    +0.033 C 
BRANCH  39  40
ATOM     40  CG  ARG A   8      37.209  38.442  30.372  0.00  0.00    +0.045 C 
BRANCH  40  41
ATOM     41  CD  ARG A   8      37.843  39.151  31.570  0.00  0.00    +0.174 C 
BRANCH  41  42
ATOM     42  NE  ARG A   8      37.434  38.564  32.854  0.00  0.00    -0.265 N 
ATOM     43  CZ  ARG A   8      36.348  38.924  33.542  0.00  0.00    +0.342 C 
ATOM     44  NH2 ARG A   8      36.072  38.347  34.704  0.00  0.00    -0.292 N 
ATOM     45 HH21 ARG A   8      35.225  38.630  35.237  0.00  0.00    +0.255 HD
ATOM     46 HH22 ARG A   8      36.703  37.611  35.082  0.00  0.00    +0.255 HD
ATOM     47  NH1 ARG A   8      35.540  39.868  33.082  0.00  0.00    -0.292 N 
ATOM     48 HH11 ARG A   8      34.697  40.141  33.626  0.00  0.00    +0.255 HD
ATOM     49 HH12 ARG A   8      35.749  40.336  32.177  0.00  0.00    +0.255 HD
ATOM     50  HE  ARG A   8      38.033  37.815  33.255  0.00  0.00    +0.259 HD
ENDBRANCH  41  42
ENDBRANCH  40  41
ENDBRANCH  39  40
ENDBRANCH  16  39
ENDBRANCH  13  16
ENDBRANCH  11  12
BRANCH  11  51
ATOM     51  CB  LEU A   7      33.056  36.481  27.336  0.00  0.00    +0.029 C 
BRANCH  51  52
ATOM     52  CG  LEU A   7      31.670  36.209  26.756  0.00  0.00    +0.002 C 
ATOM     53  CD2 LEU A   7      30.758  37.426  27.032  0.00  0.00    +0.000 C 
ATOM     54  CD1 LEU A   7      31.751  35.893  25.253  0.00  0.00    +0.000 C 
ENDBRANCH  51  52
ENDBRANCH  11  51
ENDBRANCH   8  11
ENDBRANCH   6   7
BRANCH   6  55
ATOM     55  CB  SER A   6      32.496  32.119  30.475  0.00  0.00    +0.166 C 
BRANCH  55  56
ATOM     56  OG  SER A   6      32.321  31.341  31.651  0.00  0.00    -0.380 OA
ATOM     57  H   SER A   6      31.453  30.868  31.606  0.00  0.00    +0.211 HD
ENDBRANCH  55  56
ENDBRANCH   6  55
ENDBRANCH   3   6
ENDBRANCH   1   2
BRANCH   1  59
ATOM     58  C   ARG A   4      33.111  36.974  31.738  0.00  0.00    +0.241 C 
ATOM     59  N   GLU A   5      33.396  36.255  32.827  0.00  0.00    -0.297 N 
ATOM     60  H   GLU A   5      32.669  36.175  33.566  0.00  0.00    +0.150 HD
ATOM     61  O   ARG A   4      33.919  37.164  30.808  0.00  0.00    -0.273 OA
BRANCH  58  62
ATOM     62  CA  ARG A   4      31.708  37.579  31.664  0.00  0.00    +0.149 C 
BRANCH  62  64
ATOM     63  C   TYR A   3      30.528  35.531  31.231  0.00  0.00    +0.241 C 
ATOM     64  N   ARG A   4      30.670  36.599  32.001  0.00  0.00    -0.297 N 
ATOM     65  H   ARG A   4      30.057  36.740  32.829  0.00  0.00    +0.150 HD
ATOM     66  O   TYR A   3      31.134  35.421  30.158  0.00  0.00    -0.273 OA
BRANCH  63  67
ATOM     67  CA  TYR A   3      29.584  34.435  31.720  0.00  0.00    +0.153 C 
BRANCH  67  70
ATOM     68  C   THR A   2      30.580  33.978  33.916  0.00  0.00    +0.243 C 
ATOM     69  O   THR A   2      31.675  33.663  33.422  0.00  0.00    -0.273 OA
ATOM     70  N   TYR A   3      29.533  34.387  33.192  0.00  0.00    -0.297 N 
ATOM     71  H   TYR A   3      28.662  34.678  33.679  0.00  0.00    +0.150 HD
BRANCH  68  72
ATOM     72  CA  THR A   2      30.380  33.955  35.438  0.00  0.00    +0.176 C 
BRANCH  72  74
ATOM     73  C   GLN A   1      30.257  36.369  35.811  0.00  0.00    +0.238 C 
ATOM     74  N   THR A   2      29.713  35.157  35.941  0.00  0.00    -0.295 N 
ATOM     75  H   THR A   2      28.791  35.064  36.412  0.00  0.00    +0.150 HD
ATOM     76  O   GLN A   1      31.319  36.560  35.210  0.00  0.00    -0.274 OA
BRANCH  73  77
ATOM     77  CA  GLN A   1      29.489  37.561  36.386  0.00  0.00    +0.145 C 
BRANCH  77  78
ATOM     78  N   GLN A   1      28.055  37.576  36.074  0.00  0.00    -0.238 NA
ATOM     79  H   GLN A   1      27.360  37.473  36.841  0.00  0.00    +0.142 HD
ENDBRANCH  77  78
BRANCH  77  80
ATOM     80  CB  GLN A   1      29.691  37.690  37.896  0.00  0.00    +0.036 C 
BRANCH  80  81
ATOM     81  CG  GLN A   1      29.009  38.957  38.466  0.00  0.00    +0.087 C 
BRANCH  81  82
ATOM     82  CD  GLN A   1      29.407  40.245  37.736  0.00  0.00    +0.219 C 
ATOM     83  NE2 GLN A   1      28.418  41.088  37.442  0.00  0.00    -0.329 N 
ATOM     84 HE21 GLN A   1      27.441  40.858  37.714  0.00  0.00    +0.145 HD
ATOM     85 HE22 GLN A   1      28.623  41.976  36.941  0.00  0.00    +0.145 HD
ATOM     86  OE1 GLN A   1      30.586  40.466  37.438  0.00  0.00    -0.275 OA
ENDBRANCH  81  82
ENDBRANCH  80  81
ENDBRANCH  77  80
ENDBRANCH  73  77
ENDBRANCH  72  74
BRANCH  72  87
ATOM     87  CB  THR A   2      29.612  32.691  35.899  0.00  0.00    +0.137 C 
ATOM     88  CG2 THR A   2      30.359  31.402  35.537  0.00  0.00    +0.034 C 
BRANCH  87  89
ATOM     89  OG1 THR A   2      29.654  32.641  37.330  0.00  0.00    -0.382 OA
ATOM     90  HG1 THR A   2      29.168  31.839  37.645  0.00  0.00    +0.210 HD
ENDBRANCH  87  89
ENDBRANCH  72  87
ENDBRANCH  68  72
ENDBRANCH  67  70
BRANCH  67  91
ATOM     91  CB  TYR A   3      28.168  34.492  31.101  0.00  0.00    +0.055 C 
BRANCH  91  92
ATOM     92  CG  TYR A   3      27.533  33.109  31.188  0.00  0.00    -0.020 A 
ATOM     93  CD2 TYR A   3      27.050  32.626  32.405  0.00  0.00    -0.001 A 
ATOM     94  CE2 TYR A   3      26.536  31.333  32.526  0.00  0.00    +0.036 A 
ATOM     95  CZ  TYR A   3      26.498  30.510  31.416  0.00  0.00    +0.134 A 
ATOM     96  CE1 TYR A   3      26.982  30.956  30.176  0.00  0.00    +0.036 A 
ATOM     97  CD1 TYR A   3      27.504  32.253  30.074  0.00  0.00    -0.001 A 
BRANCH  95  98
ATOM     98  OH  TYR A   3      25.981  29.244  31.565  0.00  0.00    -0.506 OA
ATOM     99  HH  TYR A   3      25.693  29.115  32.503  0.00  0.00    +0.292 HD
ENDBRANCH  95  98
ENDBRANCH  91  92
ENDBRANCH  67  91
ENDBRANCH  63  67
ENDBRANCH  62  64
BRANCH  62 100
ATOM    100  CB  ARG A   4      31.594  38.861  32.491  0.00  0.00    +0.033 C 
BRANCH 100 101
ATOM    101  CG  ARG A   4      30.327  39.597  32.208  0.00  0.00    +0.045 C 
BRANCH 101 102
ATOM    102  CD  ARG A   4      30.039  40.749  33.147  0.00  0.00    +0.174 C 
BRANCH 102 103
ATOM    103  NE  ARG A   4      28.919  41.515  32.616  0.00  0.00    -0.265 N 
ATOM    104  CZ  ARG A   4      28.332  42.516  33.258  0.00  0.00    +0.342 C 
ATOM    105  NH2 ARG A   4      28.723  42.853  34.501  0.00  0.00    -0.292 N 
ATOM    106 HH21 ARG A   4      28.257  43.639  34.997  0.00  0.00    +0.255 HD
ATOM    107 HH22 ARG A   4      29.491  42.327  34.965  0.00  0.00    +0.255 HD
ATOM    108  NH1 ARG A   4      27.324  43.155  32.678  0.00  0.00    -0.292 N 
ATOM    109 HH11 ARG A   4      26.855  43.942  33.170  0.00  0.00    +0.255 HD
ATOM    110 HH12 ARG A   4      27.003  42.869  31.731  0.00  0.00    +0.255 HD
ATOM    111  HE  ARG A   4      28.557  41.261  31.675  0.00  0.00    +0.259 HD
ENDBRANCH 102 103
ENDBRANCH 101 102
ENDBRANCH 100 101
ENDBRANCH  62 100
ENDBRANCH  58  62
ENDBRANCH   1  59
BRANCH   1 112
ATOM    112  CB  GLU A   5      34.707  34.908  34.421  0.00  0.00    +0.041 C 
BRANCH 112 113
ATOM    113  CG  GLU A   5      34.663  35.905  35.567  0.00  0.00    +0.116 C 
BRANCH 113 114
ATOM    114  CD  GLU A   5      34.540  35.281  36.949  0.00  0.00    +0.365 C 
ATOM    115  OE2 GLU A   5      34.345  36.056  37.925  0.00  0.00    -0.246 OA
ATOM    116  OE1 GLU A   5      34.633  34.041  37.082  0.00  0.00    -0.246 OA
ENDBRANCH 113 114
ENDBRANCH 112 113
ENDBRANCH   1 112
TORSDOF 47
REMARK  Name = ../refined-set-2016/1xr9/1xr9_pocket.pdb
REMARK  377 active torsions:
REMARK  status: ('A' for Active; 'I' for Inactive)
REMARK    1  A    between atoms: _1  and  _3
REMARK    2  A    between atoms: _3  and  _4
REMARK    3  A    between atoms: _3  and  _6
REMARK    4  A    between atoms: _6  and  _7
REMARK    5  A    between atoms: _7  and  _8
REMARK    6  A    between atoms: _10  and  _12
REMARK    7  A    between atoms: _12  and  _13
REMARK    8  A    between atoms: _12  and  _15
REMARK    9  A    between atoms: _15  and  _16
REMARK   10  A    between atoms: _16  and  _17
REMARK   11  A    between atoms: _17  and  _18
REMARK   12  A    between atoms: _27  and  _29
REMARK   13  A    between atoms: _29  and  _30
REMARK   14  A    between atoms: _29  and  _32
REMARK   15  A    between atoms: _32  and  _33
REMARK   16  A    between atoms: _38  and  _39
REMARK   17  A    between atoms: _41  and  _43
REMARK   18  A    between atoms: _43  and  _44
REMARK   19  A    between atoms: _43  and  _46
REMARK   20  A    between atoms: _46  and  _47
REMARK   21  A    between atoms: _53  and  _55
REMARK   22  A    between atoms: _55  and  _56
REMARK   23  A    between atoms: _55  and  _58
REMARK   24  A    between atoms: _58  and  _59
REMARK   25  A    between atoms: _64  and  _65
REMARK   26  A    between atoms: _67  and  _69
REMARK   27  A    between atoms: _69  and  _70
REMARK   28  A    between atoms: _69  and  _72
REMARK   29  A    between atoms: _72  and  _73
REMARK   30  A    between atoms: _79  and  _81
REMARK   31  A    between atoms: _81  and  _82
REMARK   32  A    between atoms: _85  and  _87
REMARK   33  A    between atoms: _87  and  _88
REMARK   34  A    between atoms: _87  and  _90
REMARK   35  A    between atoms: _93  and  _95
REMARK   36  A    between atoms: _95  and  _96
REMARK   37  A    between atoms: _98  and  _100
REMARK   38  A    between atoms: _100  and  _101
REMARK   39  A    between atoms: _100  and  _103
REMARK   40  A    between atoms: _106  and  _108
REMARK   41  A    between atoms: _108  and  _109
REMARK   42  A    between atoms: _108  and  _111
REMARK   43  A    between atoms: _111  and  _112
REMARK   44  A    between atoms: _118  and  _120
REMARK   45  A    between atoms: _120  and  _121
REMARK   46  A    between atoms: _120  and  _123
REMARK   47  A    between atoms: _126  and  _128
REMARK   48  A    between atoms: _128  and  _129
REMARK   49  A    between atoms: _128  and  _131
REMARK   50  A    between atoms: _131  and  _132
REMARK   51  A    between atoms: _138  and  _140
REMARK   52  A    between atoms: _140  and  _141
REMARK   53  A    between atoms: _140  and  _143
REMARK   54  A    between atoms: _143  and  _144
REMARK   55  A    between atoms: _144  and  _145
REMARK   56  A    between atoms: _147  and  _149
REMARK   57  A    between atoms: _149  and  _150
REMARK   58  A    between atoms: _149  and  _152
REMARK   59  A    between atoms: _152  and  _153
REMARK   60  A    between atoms: _156  and  _158
REMARK   61  A    between atoms: _158  and  _159
REMARK   62  A    between atoms: _158  and  _161
REMARK   63  A    between atoms: _161  and  _162
REMARK   64  A    between atoms: _162  and  _163
REMARK   65  A    between atoms: _166  and  _168
REMARK   66  A    between atoms: _168  and  _169
REMARK   67  A    between atoms: _168  and  _171
REMARK   68  A    between atoms: _171  and  _172
REMARK   69  A    between atoms: _172  and  _173
REMARK   70  A    between atoms: _176  and  _178
REMARK   71  A    between atoms: _178  and  _179
REMARK   72  A    between atoms: _178  and  _181
REMARK   73  A    between atoms: _181  and  _182
REMARK   74  A    between atoms: _187  and  _188
REMARK   75  A    between atoms: _190  and  _192
REMARK   76  A    between atoms: _192  and  _193
REMARK   77  A    between atoms: _192  and  _195
REMARK   78  A    between atoms: _195  and  _196
REMARK   79  A    between atoms: _206  and  _208
REMARK   80  A    between atoms: _208  and  _209
REMARK   81  A    between atoms: _208  and  _211
REMARK   82  A    between atoms: _211  and  _212
REMARK   83  A    between atoms: _215  and  _217
REMARK   84  A    between atoms: _217  and  _218
REMARK   85  A    between atoms: _217  and  _220
REMARK   86  A    between atoms: _220  and  _221
REMARK   87  A    between atoms: _221  and  _222
REMARK   88  A    between atoms: _222  and  _223
REMARK   89  A    between atoms: _232  and  _234
REMARK   90  A    between atoms: _234  and  _235
REMARK   91  A    between atoms: _234  and  _237
REMARK   92  A    between atoms: _237  and  _238
REMARK   93  A    between atoms: _238  and  _239
REMARK   94  A    between atoms: _242  and  _244
REMARK   95  A    between atoms: _244  and  _245
REMARK   96  A    between atoms: _244  and  _247
REMARK   97  A    between atoms: _247  and  _248
REMARK   98  A    between atoms: _251  and  _253
REMARK   99  A    between atoms: _253  and  _254
REMARK  100  A    between atoms: _253  and  _256
REMARK  101  A    between atoms: _256  and  _257
REMARK  102  A    between atoms: _257  and  _258
REMARK  103  A    between atoms: _263  and  _265
REMARK  104  A    between atoms: _265  and  _266
REMARK  105  A    between atoms: _265  and  _268
REMARK  106  A    between atoms: _268  and  _269
REMARK  107  A    between atoms: _272  and  _274
REMARK  108  A    between atoms: _274  and  _275
REMARK  109  A    between atoms: _274  and  _277
REMARK  110  A    between atoms: _277  and  _278
REMARK  111  A    between atoms: _280  and  _282
REMARK  112  A    between atoms: _282  and  _283
REMARK  113  A    between atoms: _282  and  _285
REMARK  114  A    between atoms: _285  and  _286
REMARK  115  A    between atoms: _286  and  _287
REMARK  116  A    between atoms: _287  and  _288
REMARK  117  A    between atoms: _288  and  _289
REMARK  118  A    between atoms: _293  and  _295
REMARK  119  A    between atoms: _295  and  _296
REMARK  120  A    between atoms: _295  and  _298
REMARK  121  A    between atoms: _298  and  _299
REMARK  122  A    between atoms: _302  and  _304
REMARK  123  A    between atoms: _304  and  _305
REMARK  124  A    between atoms: _304  and  _307
REMARK  125  A    between atoms: _307  and  _308
REMARK  126  A    between atoms: _313  and  _315
REMARK  127  A    between atoms: _315  and  _316
REMARK  128  A    between atoms: _315  and  _318
REMARK  129  A    between atoms: _318  and  _319
REMARK  130  A    between atoms: _319  and  _320
REMARK  131  A    between atoms: _325  and  _327
REMARK  132  A    between atoms: _327  and  _328
REMARK  133  A    between atoms: _327  and  _330
REMARK  134  A    between atoms: _330  and  _331
REMARK  135  A    between atoms: _334  and  _336
REMARK  136  A    between atoms: _336  and  _337
REMARK  137  A    between atoms: _336  and  _339
REMARK  138  A    between atoms: _339  and  _340
REMARK  139  A    between atoms: _345  and  _346
REMARK  140  A    between atoms: _348  and  _350
REMARK  141  A    between atoms: _350  and  _351
REMARK  142  A    between atoms: _350  and  _353
REMARK  143  A    between atoms: _353  and  _354
REMARK  144  A    between atoms: _354  and  _355
REMARK  145  A    between atoms: _355  and  _356
REMARK  146  A    between atoms: _365  and  _367
REMARK  147  A    between atoms: _367  and  _368
REMARK  148  A    between atoms: _367  and  _370
REMARK  149  A    between atoms: _370  and  _371
REMARK  150  A    between atoms: _371  and  _372
REMARK  151  A    between atoms: _375  and  _377
REMARK  152  A    between atoms: _377  and  _378
REMARK  153  A    between atoms: _377  and  _380
REMARK  154  A    between atoms: _380  and  _381
REMARK  155  A    between atoms: _383  and  _385
REMARK  156  A    between atoms: _385  and  _386
REMARK  157  A    between atoms: _385  and  _388
REMARK  158  A    between atoms: _388  and  _389
REMARK  159  A    between atoms: _392  and  _394
REMARK  160  A    between atoms: _394  and  _395
REMARK  161  A    between atoms: _394  and  _397
REMARK  162  A    between atoms: _397  and  _398
REMARK  163  A    between atoms: _398  and  _399
REMARK  164  A    between atoms: _399  and  _400
REMARK  165  A    between atoms: _409  and  _411
REMARK  166  A    between atoms: _411  and  _412
REMARK  167  A    between atoms: _411  and  _414
REMARK  168  A    between atoms: _414  and  _415
REMARK  169  A    between atoms: _420  and  _422
REMARK  170  A    between atoms: _422  and  _423
REMARK  171  A    between atoms: _422  and  _425
REMARK  172  A    between atoms: _425  and  _426
REMARK  173  A    between atoms: _429  and  _431
REMARK  174  A    between atoms: _431  and  _432
REMARK  175  A    between atoms: _431  and  _434
REMARK  176  A    between atoms: _434  and  _435
REMARK  177  A    between atoms: _440  and  _441
REMARK  178  A    between atoms: _443  and  _445
REMARK  179  A    between atoms: _445  and  _446
REMARK  180  A    between atoms: _445  and  _448
REMARK  181  A    between atoms: _448  and  _449
REMARK  182  A    between atoms: _452  and  _454
REMARK  183  A    between atoms: _454  and  _455
REMARK  184  A    between atoms: _454  and  _457
REMARK  185  A    between atoms: _457  and  _458
REMARK  186  A    between atoms: _458  and  _459
REMARK  187  A    between atoms: _464  and  _466
REMARK  188  A    between atoms: _466  and  _467
REMARK  189  A    between atoms: _466  and  _469
REMARK  190  A    between atoms: _469  and  _470
REMARK  191  A    between atoms: _470  and  _471
REMARK  192  A    between atoms: _471  and  _472
REMARK  193  A    between atoms: _481  and  _483
REMARK  194  A    between atoms: _483  and  _484
REMARK  195  A    between atoms: _483  and  _486
REMARK  196  A    between atoms: _486  and  _487
REMARK  197  A    between atoms: _487  and  _488
REMARK  198  A    between atoms: _490  and  _492
REMARK  199  A    between atoms: _492  and  _493
REMARK  200  A    between atoms: _492  and  _495
REMARK  201  A    between atoms: _495  and  _496
REMARK  202  A    between atoms: _501  and  _502
REMARK  203  A    between atoms: _504  and  _506
REMARK  204  A    between atoms: _506  and  _507
REMARK  205  A    between atoms: _509  and  _511
REMARK  206  A    between atoms: _511  and  _512
REMARK  207  A    between atoms: _511  and  _514
REMARK  208  A    between atoms: _514  and  _515
REMARK  209  A    between atoms: _515  and  _869
REMARK  210  A    between atoms: _516  and  _518
REMARK  211  A    between atoms: _518  and  _519
REMARK  212  A    between atoms: _518  and  _521
REMARK  213  A    between atoms: _521  and  _522
REMARK  214  A    between atoms: _525  and  _527
REMARK  215  A    between atoms: _527  and  _528
REMARK  216  A    between atoms: _527  and  _530
REMARK  217  A    between atoms: _530  and  _531
REMARK  218  A    between atoms: _531  and  _532
REMARK  219  A    between atoms: _537  and  _539
REMARK  220  A    between atoms: _539  and  _540
REMARK  221  A    between atoms: _539  and  _542
REMARK  222  A    between atoms: _542  and  _543
REMARK  223  A    between atoms: _545  and  _547
REMARK  224  A    between atoms: _547  and  _548
REMARK  225  A    between atoms: _551  and  _553
REMARK  226  A    between atoms: _553  and  _554
REMARK  227  A    between atoms: _553  and  _556
REMARK  228  A    between atoms: _556  and  _557
REMARK  229  A    between atoms: _562  and  _563
REMARK  230  A    between atoms: _565  and  _567
REMARK  231  A    between atoms: _567  and  _568
REMARK  232  A    between atoms: _567  and  _570
REMARK  233  A    between atoms: _570  and  _571
REMARK  234  A    between atoms: _576  and  _577
REMARK  235  A    between atoms: _579  and  _581
REMARK  236  A    between atoms: _581  and  _582
REMARK  237  A    between atoms: _581  and  _584
REMARK  238  A    between atoms: _584  and  _585
REMARK  239  A    between atoms: _588  and  _590
REMARK  240  A    between atoms: _590  and  _591
REMARK  241  A    between atoms: _594  and  _596
REMARK  242  A    between atoms: _596  and  _597
REMARK  243  A    between atoms: _596  and  _599
REMARK  244  A    between atoms: _599  and  _600
REMARK  245  A    between atoms: _610  and  _612
REMARK  246  A    between atoms: _612  and  _613
REMARK  247  A    between atoms: _616  and  _618
REMARK  248  A    between atoms: _618  and  _619
REMARK  249  A    between atoms: _622  and  _624
REMARK  250  A    between atoms: _624  and  _625
REMARK  251  A    between atoms: _624  and  _627
REMARK  252  A    between atoms: _627  and  _628
REMARK  253  A    between atoms: _628  and  _629
REMARK  254  A    between atoms: _634  and  _636
REMARK  255  A    between atoms: _636  and  _637
REMARK  256  A    between atoms: _636  and  _639
REMARK  257  A    between atoms: _639  and  _640
REMARK  258  A    between atoms: _643  and  _645
REMARK  259  A    between atoms: _645  and  _646
REMARK  260  A    between atoms: _645  and  _648
REMARK  261  A    between atoms: _648  and  _649
REMARK  262  A    between atoms: _652  and  _654
REMARK  263  A    between atoms: _654  and  _655
REMARK  264  A    between atoms: _654  and  _657
REMARK  265  A    between atoms: _657  and  _658
REMARK  266  A    between atoms: _658  and  _659
REMARK  267  A    between atoms: _664  and  _666
REMARK  268  A    between atoms: _666  and  _667
REMARK  269  A    between atoms: _666  and  _669
REMARK  270  A    between atoms: _669  and  _670
REMARK  271  A    between atoms: _670  and  _671
REMARK  272  A    between atoms: _671  and  _672
REMARK  273  A    between atoms: _681  and  _683
REMARK  274  A    between atoms: _683  and  _684
REMARK  275  A    between atoms: _683  and  _686
REMARK  276  A    between atoms: _686  and  _687
REMARK  277  A    between atoms: _687  and  _688
REMARK  278  A    between atoms: _688  and  _689
REMARK  279  A    between atoms: _689  and  _690
REMARK  280  A    between atoms: _694  and  _696
REMARK  281  A    between atoms: _696  and  _697
REMARK  282  A    between atoms: _696  and  _699
REMARK  283  A    between atoms: _699  and  _700
REMARK  284  A    between atoms: _710  and  _712
REMARK  285  A    between atoms: _712  and  _713
REMARK  286  A    between atoms: _712  and  _715
REMARK  287  A    between atoms: _715  and  _716
REMARK  288  A    between atoms: _716  and  _717
REMARK  289  A    between atoms: _720  and  _722
REMARK  290  A    between atoms: _722  and  _723
REMARK  291  A    between atoms: _726  and  _728
REMARK  292  A    between atoms: _728  and  _729
REMARK  293  A    between atoms: _732  and  _734
REMARK  294  A    between atoms: _734  and  _735
REMARK  295  A    between atoms: _734  and  _737
REMARK  296  A    between atoms: _737  and  _738
REMARK  297  A    between atoms: _738  and  _739
REMARK  298  A    between atoms: _739  and  _740
REMARK  299  A    between atoms: _749  and  _751
REMARK  300  A    between atoms: _751  and  _752
REMARK  301  A    between atoms: _751  and  _754
REMARK  302  A    between atoms: _754  and  _755
REMARK  303  A    between atoms: _755  and  _756
REMARK  304  A    between atoms: _759  and  _761
REMARK  305  A    between atoms: _761  and  _762
REMARK  306  A    between atoms: _765  and  _767
REMARK  307  A    between atoms: _767  and  _768
REMARK  308  A    between atoms: _767  and  _770
REMARK  309  A    between atoms: _770  and  _771
REMARK  310  A    between atoms: _771  and  _772
REMARK  311  A    between atoms: _775  and  _777
REMARK  312  A    between atoms: _777  and  _778
REMARK  313  A    between atoms: _777  and  _780
REMARK  314  A    between atoms: _780  and  _781
REMARK  315  A    between atoms: _781  and  _782
REMARK  316  A    between atoms: _787  and  _789
REMARK  317  A    between atoms: _789  and  _790
REMARK  318  A    between atoms: _789  and  _792
REMARK  319  A    between atoms: _792  and  _793
REMARK  320  A    between atoms: _803  and  _805
REMARK  321  A    between atoms: _805  and  _806
REMARK  322  A    between atoms: _805  and  _808
REMARK  323  A    between atoms: _808  and  _809
REMARK  324  A    between atoms: _809  and  _810
REMARK  325  A    between atoms: _810  and  _811
REMARK  326  A    between atoms: _820  and  _822
REMARK  327  A    between atoms: _822  and  _823
REMARK  328  A    between atoms: _826  and  _828
REMARK  329  A    between atoms: _828  and  _829
REMARK  330  A    between atoms: _828  and  _831
REMARK  331  A    between atoms: _831  and  _832
REMARK  332  A    between atoms: _837  and  _838
REMARK  333  A    between atoms: _840  and  _842
REMARK  334  A    between atoms: _842  and  _843
REMARK  335  A    between atoms: _842  and  _845
REMARK  336  A    between atoms: _845  and  _846
REMARK  337  A    between atoms: _849  and  _851
REMARK  338  A    between atoms: _851  and  _852
REMARK  339  A    between atoms: _854  and  _856
REMARK  340  A    between atoms: _856  and  _857
REMARK  341  A    between atoms: _856  and  _859
REMARK  342  A    between atoms: _859  and  _860
REMARK  343  A    between atoms: _863  and  _865
REMARK  344  A    between atoms: _865  and  _866
REMARK  345  A    between atoms: _865  and  _868
REMARK  346  A    between atoms: _868  and  _869
REMARK  347  A    between atoms: _870  and  _872
REMARK  348  A    between atoms: _872  and  _873
REMARK  349  A    between atoms: _872  and  _875
REMARK  350  A    between atoms: _878  and  _880
REMARK  351  A    between atoms: _880  and  _881
REMARK  352  A    between atoms: _880  and  _883
REMARK  353  A    between atoms: _883  and  _884
REMARK  354  A    between atoms: _884  and  _885
REMARK  355  A    between atoms: _888  and  _890
REMARK  356  A    between atoms: _890  and  _891
REMARK  357  A    between atoms: _890  and  _893
REMARK  358  A    between atoms: _893  and  _894
REMARK  359  A    between atoms: _904  and  _906
REMARK  360  A    between atoms: _906  and  _907
REMARK  361  A    between atoms: _906  and  _909
REMARK  362  A    between atoms: _909  and  _910
REMARK  363  A    between atoms: _913  and  _915
REMARK  364  A    between atoms: _915  and  _916
REMARK  365  A    between atoms: _915  and  _918
REMARK  366  A    between atoms: _918  and  _919
REMARK  367  A    between atoms: _919  and  _920
REMARK  368  A    between atoms: _920  and  _921
REMARK  369  A    between atoms: _930  and  _932
REMARK  370  A    between atoms: _932  and  _933
REMARK  371  A    between atoms: _932  and  _935
REMARK  372  A    between atoms: _935  and  _936
REMARK  373  A    between atoms: _941  and  _942
REMARK  374  A    between atoms: _944  and  _946
REMARK  375  A    between atoms: _946  and  _947
REMARK  376  A    between atoms: _946  and  _949
REMARK  377  A    between atoms: _949  and  _950
REMARK                            x       y       z     vdW  Elec       q    Type
REMARK                         _______ _______ _______ _____ _____    ______ ____
ROOT
ATOM      1  CG  TYR A   1      39.828  28.888  25.793  0.00  0.00    -0.020 A 
ATOM      2  CD2 TYR A   1      40.788  28.948  26.807  0.00  0.00    -0.001 A 
ATOM      3  CE2 TYR A   1      40.473  28.618  28.098  0.00  0.00    +0.036 A 
ATOM      4  CZ  TYR A   1      39.187  28.200  28.396  0.00  0.00    +0.134 A 
ATOM      5  CE1 TYR A   1      38.220  28.118  27.418  0.00  0.00    +0.036 A 
ATOM      6  CD1 TYR A   1      38.548  28.448  26.123  0.00  0.00    -0.001 A 
ENDROOT
BRANCH   4   7
ATOM      7  OH  TYR A   1      38.860  27.891  29.677  0.00  0.00    -0.506 OA
ATOM      8  HH  TYR A   1      38.141  28.497  29.988  0.00  0.00    +0.292 HD
ENDBRANCH   4   7
BRANCH   1   9
ATOM      9  CB  TYR A   1      40.162  29.210  24.364  0.00  0.00    +0.051 C 
BRANCH   9  10
ATOM     10  CA  TYR A   1      41.401  30.078  24.106  0.00  0.00    +0.137 C 
BRANCH  10  11
ATOM     11  N   TYR A   1      41.275  31.404  24.730  0.00  0.00    -0.239 NA
ATOM     12  H   TYR A   1      40.399  31.667  25.225  0.00  0.00    +0.142 HD
ENDBRANCH  10  11
BRANCH  10  13
ATOM     13  C   TYR A   1      41.590  30.147  22.599  0.00  0.00    +0.224 C 
ATOM     14  O   TYR A   1      42.149  29.225  22.004  0.00  0.00    -0.287 OA
ENDBRANCH  10  13
ENDBRANCH   9  10
ENDBRANCH   1   9
TORSDOF 5
REMARK  Name = ../refined-set-2016/1xr9/1xr9_pocket.pdb
REMARK  377 active torsions:
REMARK  status: ('A' for Active; 'I' for Inactive)
REMARK    1  A    between atoms: _1  and  _3
REMARK    2  A    between atoms: _3  and  _4
REMARK    3  A    between atoms: _3  and  _6
REMARK    4  A    between atoms: _6  and  _7
REMARK    5  A    between atoms: _7  and  _8
REMARK    6  A    between atoms: _10  and  _12
REMARK    7  A    between atoms: _12  and  _13
REMARK    8  A    between atoms: _12  and  _15
REMARK    9  A    between atoms: _15  and  _16
REMARK   10  A    between atoms: _16  and  _17
REMARK   11  A    between atoms: _17  and  _18
REMARK   12  A    between atoms: _27  and  _29
REMARK   13  A    between atoms: _29  and  _30
REMARK   14  A    between atoms: _29  and  _32
REMARK   15  A    between atoms: _32  and  _33
REMARK   16  A    between atoms: _38  and  _39
REMARK   17  A    between atoms: _41  and  _43
REMARK   18  A    between atoms: _43  and  _44
REMARK   19  A    between atoms: _43  and  _46
REMARK   20  A    between atoms: _46  and  _47
REMARK   21  A    between atoms: _53  and  _55
REMARK   22  A    between atoms: _55  and  _56
REMARK   23  A    between atoms: _55  and  _58
REMARK   24  A    between atoms: _58  and  _59
REMARK   25  A    between atoms: _64  and  _65
REMARK   26  A    between atoms: _67  and  _69
REMARK   27  A    between atoms: _69  and  _70
REMARK   28  A    between atoms: _69  and  _72
REMARK   29  A    between atoms: _72  and  _73
REMARK   30  A    between atoms: _79  and  _81
REMARK   31  A    between atoms: _81  and  _82
REMARK   32  A    between atoms: _85  and  _87
REMARK   33  A    between atoms: _87  and  _88
REMARK   34  A    between atoms: _87  and  _90
REMARK   35  A    between atoms: _93  and  _95
REMARK   36  A    between atoms: _95  and  _96
REMARK   37  A    between atoms: _98  and  _100
REMARK   38  A    between atoms: _100  and  _101
REMARK   39  A    between atoms: _100  and  _103
REMARK   40  A    between atoms: _106  and  _108
REMARK   41  A    between atoms: _108  and  _109
REMARK   42  A    between atoms: _108  and  _111
REMARK   43  A    between atoms: _111  and  _112
REMARK   44  A    between atoms: _118  and  _120
REMARK   45  A    between atoms: _120  and  _121
REMARK   46  A    between atoms: _120  and  _123
REMARK   47  A    between atoms: _126  and  _128
REMARK   48  A    between atoms: _128  and  _129
REMARK   49  A    between atoms: _128  and  _131
REMARK   50  A    between atoms: _131  and  _132
REMARK   51  A    between atoms: _138  and  _140
REMARK   52  A    between atoms: _140  and  _141
REMARK   53  A    between atoms: _140  and  _143
REMARK   54  A    between atoms: _143  and  _144
REMARK   55  A    between atoms: _144  and  _145
REMARK   56  A    between atoms: _147  and  _149
REMARK   57  A    between atoms: _149  and  _150
REMARK   58  A    between atoms: _149  and  _152
REMARK   59  A    between atoms: _152  and  _153
REMARK   60  A    between atoms: _156  and  _158
REMARK   61  A    between atoms: _158  and  _159
REMARK   62  A    between atoms: _158  and  _161
REMARK   63  A    between atoms: _161  and  _162
REMARK   64  A    between atoms: _162  and  _163
REMARK   65  A    between atoms: _166  and  _168
REMARK   66  A    between atoms: _168  and  _169
REMARK   67  A    between atoms: _168  and  _171
REMARK   68  A    between atoms: _171  and  _172
REMARK   69  A    between atoms: _172  and  _173
REMARK   70  A    between atoms: _176  and  _178
REMARK   71  A    between atoms: _178  and  _179
REMARK   72  A    between atoms: _178  and  _181
REMARK   73  A    between atoms: _181  and  _182
REMARK   74  A    between atoms: _187  and  _188
REMARK   75  A    between atoms: _190  and  _192
REMARK   76  A    between atoms: _192  and  _193
REMARK   77  A    between atoms: _192  and  _195
REMARK   78  A    between atoms: _195  and  _196
REMARK   79  A    between atoms: _206  and  _208
REMARK   80  A    between atoms: _208  and  _209
REMARK   81  A    between atoms: _208  and  _211
REMARK   82  A    between atoms: _211  and  _212
REMARK   83  A    between atoms: _215  and  _217
REMARK   84  A    between atoms: _217  and  _218
REMARK   85  A    between atoms: _217  and  _220
REMARK   86  A    between atoms: _220  and  _221
REMARK   87  A    between atoms: _221  and  _222
REMARK   88  A    between atoms: _222  and  _223
REMARK   89  A    between atoms: _232  and  _234
REMARK   90  A    between atoms: _234  and  _235
REMARK   91  A    between atoms: _234  and  _237
REMARK   92  A    between atoms: _237  and  _238
REMARK   93  A    between atoms: _238  and  _239
REMARK   94  A    between atoms: _242  and  _244
REMARK   95  A    between atoms: _244  and  _245
REMARK   96  A    between atoms: _244  and  _247
REMARK   97  A    between atoms: _247  and  _248
REMARK   98  A    between atoms: _251  and  _253
REMARK   99  A    between atoms: _253  and  _254
REMARK  100  A    between atoms: _253  and  _256
REMARK  101  A    between atoms: _256  and  _257
REMARK  102  A    between atoms: _257  and  _258
REMARK  103  A    between atoms: _263  and  _265
REMARK  104  A    between atoms: _265  and  _266
REMARK  105  A    between atoms: _265  and  _268
REMARK  106  A    between atoms: _268  and  _269
REMARK  107  A    between atoms: _272  and  _274
REMARK  108  A    between atoms: _274  and  _275
REMARK  109  A    between atoms: _274  and  _277
REMARK  110  A    between atoms: _277  and  _278
REMARK  111  A    between atoms: _280  and  _282
REMARK  112  A    between atoms: _282  and  _283
REMARK  113  A    between atoms: _282  and  _285
REMARK  114  A    between atoms: _285  and  _286
REMARK  115  A    between atoms: _286  and  _287
REMARK  116  A    between atoms: _287  and  _288
REMARK  117  A    between atoms: _288  and  _289
REMARK  118  A    between atoms: _293  and  _295
REMARK  119  A    between atoms: _295  and  _296
REMARK  120  A    between atoms: _295  and  _298
REMARK  121  A    between atoms: _298  and  _299
REMARK  122  A    between atoms: _302  and  _304
REMARK  123  A    between atoms: _304  and  _305
REMARK  124  A    between atoms: _304  and  _307
REMARK  125  A    between atoms: _307  and  _308
REMARK  126  A    between atoms: _313  and  _315
REMARK  127  A    between atoms: _315  and  _316
REMARK  128  A    between atoms: _315  and  _318
REMARK  129  A    between atoms: _318  and  _319
REMARK  130  A    between atoms: _319  and  _320
REMARK  131  A    between atoms: _325  and  _327
REMARK  132  A    between atoms: _327  and  _328
REMARK  133  A    between atoms: _327  and  _330
REMARK  134  A    between atoms: _330  and  _331
REMARK  135  A    between atoms: _334  and  _336
REMARK  136  A    between atoms: _336  and  _337
REMARK  137  A    between atoms: _336  and  _339
REMARK  138  A    between atoms: _339  and  _340
REMARK  139  A    between atoms: _345  and  _346
REMARK  140  A    between atoms: _348  and  _350
REMARK  141  A    between atoms: _350  and  _351
REMARK  142  A    between atoms: _350  and  _353
REMARK  143  A    between atoms: _353  and  _354
REMARK  144  A    between atoms: _354  and  _355
REMARK  145  A    between atoms: _355  and  _356
REMARK  146  A    between atoms: _365  and  _367
REMARK  147  A    between atoms: _367  and  _368
REMARK  148  A    between atoms: _367  and  _370
REMARK  149  A    between atoms: _370  and  _371
REMARK  150  A    between atoms: _371  and  _372
REMARK  151  A    between atoms: _375  and  _377
REMARK  152  A    between atoms: _377  and  _378
REMARK  153  A    between atoms: _377  and  _380
REMARK  154  A    between atoms: _380  and  _381
REMARK  155  A    between atoms: _383  and  _385
REMARK  156  A    between atoms: _385  and  _386
REMARK  157  A    between atoms: _385  and  _388
REMARK  158  A    between atoms: _388  and  _389
REMARK  159  A    between atoms: _392  and  _394
REMARK  160  A    between atoms: _394  and  _395
REMARK  161  A    between atoms: _394  and  _397
REMARK  162  A    between atoms: _397  and  _398
REMARK  163  A    between atoms: _398  and  _399
REMARK  164  A    between atoms: _399  and  _400
REMARK  165  A    between atoms: _409  and  _411
REMARK  166  A    between atoms: _411  and  _412
REMARK  167  A    between atoms: _411  and  _414
REMARK  168  A    between atoms: _414  and  _415
REMARK  169  A    between atoms: _420  and  _422
REMARK  170  A    between atoms: _422  and  _423
REMARK  171  A    between atoms: _422  and  _425
REMARK  172  A    between atoms: _425  and  _426
REMARK  173  A    between atoms: _429  and  _431
REMARK  174  A    between atoms: _431  and  _432
REMARK  175  A    between atoms: _431  and  _434
REMARK  176  A    between atoms: _434  and  _435
REMARK  177  A    between atoms: _440  and  _441
REMARK  178  A    between atoms: _443  and  _445
REMARK  179  A    between atoms: _445  and  _446
REMARK  180  A    between atoms: _445  and  _448
REMARK  181  A    between atoms: _448  and  _449
REMARK  182  A    between atoms: _452  and  _454
REMARK  183  A    between atoms: _454  and  _455
REMARK  184  A    between atoms: _454  and  _457
REMARK  185  A    between atoms: _457  and  _458
REMARK  186  A    between atoms: _458  and  _459
REMARK  187  A    between atoms: _464  and  _466
REMARK  188  A    between atoms: _466  and  _467
REMARK  189  A    between atoms: _466  and  _469
REMARK  190  A    between atoms: _469  and  _470
REMARK  191  A    between atoms: _470  and  _471
REMARK  192  A    between atoms: _471  and  _472
REMARK  193  A    between atoms: _481  and  _483
REMARK  194  A    between atoms: _483  and  _484
REMARK  195  A    between atoms: _483  and  _486
REMARK  196  A    between atoms: _486  and  _487
REMARK  197  A    between atoms: _487  and  _488
REMARK  198  A    between atoms: _490  and  _492
REMARK  199  A    between atoms: _492  and  _493
REMARK  200  A    between atoms: _492  and  _495
REMARK  201  A    between atoms: _495  and  _496
REMARK  202  A    between atoms: _501  and  _502
REMARK  203  A    between atoms: _504  and  _506
REMARK  204  A    between atoms: _506  and  _507
REMARK  205  A    between atoms: _509  and  _511
REMARK  206  A    between atoms: _511  and  _512
REMARK  207  A    between atoms: _511  and  _514
REMARK  208  A    between atoms: _514  and  _515
REMARK  209  A    between atoms: _515  and  _869
REMARK  210  A    between atoms: _516  and  _518
REMARK  211  A    between atoms: _518  and  _519
REMARK  212  A    between atoms: _518  and  _521
REMARK  213  A    between atoms: _521  and  _522
REMARK  214  A    between atoms: _525  and  _527
REMARK  215  A    between atoms: _527  and  _528
REMARK  216  A    between atoms: _527  and  _530
REMARK  217  A    between atoms: _530  and  _531
REMARK  218  A    between atoms: _531  and  _532
REMARK  219  A    between atoms: _537  and  _539
REMARK  220  A    between atoms: _539  and  _540
REMARK  221  A    between atoms: _539  and  _542
REMARK  222  A    between atoms: _542  and  _543
REMARK  223  A    between atoms: _545  and  _547
REMARK  224  A    between atoms: _547  and  _548
REMARK  225  A    between atoms: _551  and  _553
REMARK  226  A    between atoms: _553  and  _554
REMARK  227  A    between atoms: _553  and  _556
REMARK  228  A    between atoms: _556  and  _557
REMARK  229  A    between atoms: _562  and  _563
REMARK  230  A    between atoms: _565  and  _567
REMARK  231  A    between atoms: _567  and  _568
REMARK  232  A    between atoms: _567  and  _570
REMARK  233  A    between atoms: _570  and  _571
REMARK  234  A    between atoms: _576  and  _577
REMARK  235  A    between atoms: _579  and  _581
REMARK  236  A    between atoms: _581  and  _582
REMARK  237  A    between atoms: _581  and  _584
REMARK  238  A    between atoms: _584  and  _585
REMARK  239  A    between atoms: _588  and  _590
REMARK  240  A    between atoms: _590  and  _591
REMARK  241  A    between atoms: _594  and  _596
REMARK  242  A    between atoms: _596  and  _597
REMARK  243  A    between atoms: _596  and  _599
REMARK  244  A    between atoms: _599  and  _600
REMARK  245  A    between atoms: _610  and  _612
REMARK  246  A    between atoms: _612  and  _613
REMARK  247  A    between atoms: _616  and  _618
REMARK  248  A    between atoms: _618  and  _619
REMARK  249  A    between atoms: _622  and  _624
REMARK  250  A    between atoms: _624  and  _625
REMARK  251  A    between atoms: _624  and  _627
REMARK  252  A    between atoms: _627  and  _628
REMARK  253  A    between atoms: _628  and  _629
REMARK  254  A    between atoms: _634  and  _636
REMARK  255  A    between atoms: _636  and  _637
REMARK  256  A    between atoms: _636  and  _639
REMARK  257  A    between atoms: _639  and  _640
REMARK  258  A    between atoms: _643  and  _645
REMARK  259  A    between atoms: _645  and  _646
REMARK  260  A    between atoms: _645  and  _648
REMARK  261  A    between atoms: _648  and  _649
REMARK  262  A    between atoms: _652  and  _654
REMARK  263  A    between atoms: _654  and  _655
REMARK  264  A    between atoms: _654  and  _657
REMARK  265  A    between atoms: _657  and  _658
REMARK  266  A    between atoms: _658  and  _659
REMARK  267  A    between atoms: _664  and  _666
REMARK  268  A    between atoms: _666  and  _667
REMARK  269  A    between atoms: _666  and  _669
REMARK  270  A    between atoms: _669  and  _670
REMARK  271  A    between atoms: _670  and  _671
REMARK  272  A    between atoms: _671  and  _672
REMARK  273  A    between atoms: _681  and  _683
REMARK  274  A    between atoms: _683  and  _684
REMARK  275  A    between atoms: _683  and  _686
REMARK  276  A    between atoms: _686  and  _687
REMARK  277  A    between atoms: _687  and  _688
REMARK  278  A    between atoms: _688  and  _689
REMARK  279  A    between atoms: _689  and  _690
REMARK  280  A    between atoms: _694  and  _696
REMARK  281  A    between atoms: _696  and  _697
REMARK  282  A    between atoms: _696  and  _699
REMARK  283  A    between atoms: _699  and  _700
REMARK  284  A    between atoms: _710  and  _712
REMARK  285  A    between atoms: _712  and  _713
REMARK  286  A    between atoms: _712  and  _715
REMARK  287  A    between atoms: _715  and  _716
REMARK  288  A    between atoms: _716  and  _717
REMARK  289  A    between atoms: _720  and  _722
REMARK  290  A    between atoms: _722  and  _723
REMARK  291  A    between atoms: _726  and  _728
REMARK  292  A    between atoms: _728  and  _729
REMARK  293  A    between atoms: _732  and  _734
REMARK  294  A    between atoms: _734  and  _735
REMARK  295  A    between atoms: _734  and  _737
REMARK  296  A    between atoms: _737  and  _738
REMARK  297  A    between atoms: _738  and  _739
REMARK  298  A    between atoms: _739  and  _740
REMARK  299  A    between atoms: _749  and  _751
REMARK  300  A    between atoms: _751  and  _752
REMARK  301  A    between atoms: _751  and  _754
REMARK  302  A    between atoms: _754  and  _755
REMARK  303  A    between atoms: _755  and  _756
REMARK  304  A    between atoms: _759  and  _761
REMARK  305  A    between atoms: _761  and  _762
REMARK  306  A    between atoms: _765  and  _767
REMARK  307  A    between atoms: _767  and  _768
REMARK  308  A    between atoms: _767  and  _770
REMARK  309  A    between atoms: _770  and  _771
REMARK  310  A    between atoms: _771  and  _772
REMARK  311  A    between atoms: _775  and  _777
REMARK  312  A    between atoms: _777  and  _778
REMARK  313  A    between atoms: _777  and  _780
REMARK  314  A    between atoms: _780  and  _781
REMARK  315  A    between atoms: _781  and  _782
REMARK  316  A    between atoms: _787  and  _789
REMARK  317  A    between atoms: _789  and  _790
REMARK  318  A    between atoms: _789  and  _792
REMARK  319  A    between atoms: _792  and  _793
REMARK  320  A    between atoms: _803  and  _805
REMARK  321  A    between atoms: _805  and  _806
REMARK  322  A    between atoms: _805  and  _808
REMARK  323  A    between atoms: _808  and  _809
REMARK  324  A    between atoms: _809  and  _810
REMARK  325  A    between atoms: _810  and  _811
REMARK  326  A    between atoms: _820  and  _822
REMARK  327  A    between atoms: _822  and  _823
REMARK  328  A    between atoms: _826  and  _828
REMARK  329  A    between atoms: _828  and  _829
REMARK  330  A    between atoms: _828  and  _831
REMARK  331  A    between atoms: _831  and  _832
REMARK  332  A    between atoms: _837  and  _838
REMARK  333  A    between atoms: _840  and  _842
REMARK  334  A    between atoms: _842  and  _843
REMARK  335  A    between atoms: _842  and  _845
REMARK  336  A    between atoms: _845  and  _846
REMARK  337  A    between atoms: _849  and  _851
REMARK  338  A    between atoms: _851  and  _852
REMARK  339  A    between atoms: _854  and  _856
REMARK  340  A    between atoms: _856  and  _857
REMARK  341  A    between atoms: _856  and  _859
REMARK  342  A    between atoms: _859  and  _860
REMARK  343  A    between atoms: _863  and  _865
REMARK  344  A    between atoms: _865  and  _866
REMARK  345  A    between atoms: _865  and  _868
REMARK  346  A    between atoms: _868  and  _869
REMARK  347  A    between atoms: _870  and  _872
REMARK  348  A    between atoms: _872  and  _873
REMARK  349  A    between atoms: _872  and  _875
REMARK  350  A    between atoms: _878  and  _880
REMARK  351  A    between atoms: _880  and  _881
REMARK  352  A    between atoms: _880  and  _883
REMARK  353  A    between atoms: _883  and  _884
REMARK  354  A    between atoms: _884  and  _885
REMARK  355  A    between atoms: _888  and  _890
REMARK  356  A    between atoms: _890  and  _891
REMARK  357  A    between atoms: _890  and  _893
REMARK  358  A    between atoms: _893  and  _894
REMARK  359  A    between atoms: _904  and  _906
REMARK  360  A    between atoms: _906  and  _907
REMARK  361  A    between atoms: _906  and  _909
REMARK  362  A    between atoms: _909  and  _910
REMARK  363  A    between atoms: _913  and  _915
REMARK  364  A    between atoms: _915  and  _916
REMARK  365  A    between atoms: _915  and  _918
REMARK  366  A    between atoms: _918  and  _919
REMARK  367  A    between atoms: _919  and  _920
REMARK  368  A    between atoms: _920  and  _921
REMARK  369  A    between atoms: _930  and  _932
REMARK  370  A    between atoms: _932  and  _933
REMARK  371  A    between atoms: _932  and  _935
REMARK  372  A    between atoms: _935  and  _936
REMARK  373  A    between atoms: _941  and  _942
REMARK  374  A    between atoms: _944  and  _946
REMARK  375  A    between atoms: _946  and  _947
REMARK  376  A    between atoms: _946  and  _949
REMARK  377  A    between atoms: _949  and  _950
REMARK                            x       y       z     vdW  Elec       q    Type
REMARK                         _______ _______ _______ _____ _____    ______ ____
ROOT
ATOM      1  CA  LEU A   7      14.306  18.865  29.635  0.00  0.00    +0.149 C 
ENDROOT
BRANCH   1   3
ATOM      2  C   TRP A   6      16.052  20.531  29.323  0.00  0.00    +0.243 C 
ATOM      3  N   LEU A   7      14.780  20.256  29.580  0.00  0.00    -0.297 N 
ATOM      4  H   LEU A   7      14.110  21.034  29.745  0.00  0.00    +0.150 HD
ATOM      5  O   TRP A   6      16.858  19.697  28.912  0.00  0.00    -0.273 OA
BRANCH   2   6
ATOM      6  CA  TRP A   6      16.445  21.972  29.519  0.00  0.00    +0.176 C 
BRANCH   6   8
ATOM      7  C   GLU A   5      18.072  23.490  28.593  0.00  0.00    +0.241 C 
ATOM      8  N   TRP A   6      17.773  22.257  28.960  0.00  0.00    -0.295 N 
ATOM      9  H   TRP A   6      18.472  21.494  28.854  0.00  0.00    +0.150 HD
ATOM     10  O   GLU A   5      17.229  24.409  28.579  0.00  0.00    -0.273 OA
BRANCH   7  11
ATOM     11  CA  GLU A   5      19.508  23.756  28.191  0.00  0.00    +0.153 C 
BRANCH  11  13
ATOM     12  C   VAL A   4      20.538  25.056  26.419  0.00  0.00    +0.241 C 
ATOM     13  N   GLU A   5      19.647  24.990  27.408  0.00  0.00    -0.297 N 
ATOM     14  H   GLU A   5      19.050  25.813  27.625  0.00  0.00    +0.150 HD
ATOM     15  O   VAL A   4      21.321  24.148  26.145  0.00  0.00    -0.273 OA
BRANCH  12  16
ATOM     16  CA  VAL A   4      20.611  26.359  25.662  0.00  0.00    +0.149 C 
BRANCH  16  19
ATOM     17  C   CYS A   3      22.377  28.001  26.025  0.00  0.00    +0.241 C 
ATOM     18  O   CYS A   3      21.556  28.916  26.174  0.00  0.00    -0.273 OA
ATOM     19  N   VAL A   4      22.011  26.744  25.764  0.00  0.00    -0.297 N 
ATOM     20  H   VAL A   4      22.746  26.020  25.630  0.00  0.00    +0.150 HD
BRANCH  17  21
ATOM     21  CA  CYS A   3      23.875  28.271  26.126  0.00  0.00    +0.149 C 
BRANCH  21  23
ATOM     22  C   LEU A   2      25.188  29.744  24.673  0.00  0.00    +0.241 C 
ATOM     23  N   CYS A   3      24.172  29.571  25.504  0.00  0.00    -0.297 N 
ATOM     24  H   CYS A   3      23.562  30.383  25.725  0.00  0.00    +0.150 HD
ATOM     25  O   LEU A   2      26.004  28.873  24.400  0.00  0.00    -0.273 OA
BRANCH  22  26
ATOM     26  CA  LEU A   2      25.257  31.095  24.004  0.00  0.00    +0.149 C 
BRANCH  26  29
ATOM     27  C   GLY A   1      27.121  32.629  24.320  0.00  0.00    +0.238 C 
ATOM     28  O   GLY A   1      26.420  33.394  25.002  0.00  0.00    -0.274 OA
ATOM     29  N   LEU A   2      26.648  31.508  23.759  0.00  0.00    -0.297 N 
ATOM     30  H   LEU A   2      27.263  30.930  23.151  0.00  0.00    +0.150 HD
BRANCH  27  31
ATOM     31  CA  GLY A   1      28.582  32.944  24.087  0.00  0.00    +0.145 C 
BRANCH  31  32
ATOM     32  N   GLY A   1      28.627  34.268  23.494  0.00  0.00    -0.238 NA
ATOM     33  H   GLY A   1      28.262  35.075  24.038  0.00  0.00    +0.142 HD
ENDBRANCH  31  32
BRANCH  31  34
ATOM     34  CB  GLY A   1      29.321  32.917  25.425  0.00  0.00    +0.026 C 
BRANCH  34  35
ATOM     35  CG  GLY A   1      29.298  31.615  26.243  0.00  0.00    +0.002 C 
ATOM     36  CD2 GLY A   1      30.194  31.776  27.501  0.00  0.00    +0.000 C 
ATOM     37  CD1 GLY A   1      29.754  30.412  25.386  0.00  0.00    +0.000 C 
ENDBRANCH  34  35
ENDBRANCH  31  34
ENDBRANCH  27  31
ENDBRANCH  26  29
BRANCH  26  38
ATOM     38  CB  LEU A   2      24.464  31.002  22.692  0.00  0.00    +0.039 C 
BRANCH  38  39
ATOM     39  CG  LEU A   2      24.231  32.402  22.063  0.00  0.00    +0.087 C 
BRANCH  39  40
ATOM     40  CD  LEU A   2      23.990  32.255  20.584  0.00  0.00    +0.219 C 
ATOM     41  NE2 LEU A   2      22.713  32.184  20.199  0.00  0.00    -0.329 N 
ATOM     42 HE21 LEU A   2      21.952  32.297  20.899  0.00  0.00    +0.145 HD
ATOM     43 HE22 LEU A   2      22.480  32.016  19.199  0.00  0.00    +0.145 HD
ATOM     44  OE1 LEU A   2      24.935  32.130  19.804  0.00  0.00    -0.275 OA
ENDBRANCH  39  40
ENDBRANCH  38  39
ENDBRANCH  26  38
ENDBRANCH  22  26
ENDBRANCH  21  23
BRANCH  21  45
ATOM     45  CB  CYS A   3      24.295  28.270  27.602  0.00  0.00    +0.033 C 
BRANCH  45  46
ATOM     46  CG  CYS A   3      24.451  26.875  28.175  0.00  0.00    +0.045 C 
BRANCH  46  47
ATOM     47  CD  CYS A   3      25.008  26.889  29.599  0.00  0.00    +0.174 C 
BRANCH  47  48
ATOM     48  NE  CYS A   3      25.452  25.566  29.992  0.00  0.00    -0.265 N 
ATOM     49  CZ  CYS A   3      26.492  25.357  30.776  0.00  0.00    +0.342 C 
ATOM     50  NH2 CYS A   3      27.209  26.396  31.217  0.00  0.00    -0.292 N 
ATOM     51 HH21 CYS A   3      28.030  26.236  31.835  0.00  0.00    +0.255 HD
ATOM     52 HH22 CYS A   3      26.946  27.364  30.942  0.00  0.00    +0.255 HD
ATOM     53  NH1 CYS A   3      26.825  24.103  31.099  0.00  0.00    -0.292 N 
ATOM     54 HH11 CYS A   3      27.643  23.925  31.716  0.00  0.00    +0.255 HD
ATOM     55 HH12 CYS A   3      26.266  23.306  30.733  0.00  0.00    +0.255 HD
ATOM     56  HE  CYS A   3      24.925  24.742  29.639  0.00  0.00    +0.259 HD
ENDBRANCH  47  48
ENDBRANCH  46  47
ENDBRANCH  45  46
ENDBRANCH  21  45
ENDBRANCH  17  21
ENDBRANCH  16  19
BRANCH  16  57
ATOM     57  CB  VAL A   4      20.296  26.197  24.157  0.00  0.00    +0.041 C 
BRANCH  57  58
ATOM     58  CG  VAL A   4      18.965  25.778  23.702  0.00  0.00    +0.060 C 
BRANCH  58  59
ATOM     59  SD  VAL A   4      19.089  25.935  21.855  0.00  0.00    -0.139 S 
ATOM     60  CE  VAL A   4      20.497  25.003  21.353  0.00  0.00    +0.069 C 
ENDBRANCH  58  59
ENDBRANCH  57  58
ENDBRANCH  16  57
ENDBRANCH  12  16
ENDBRANCH  11  13
BRANCH  11  61
ATOM     61  CB  GLU A   5      20.411  23.820  29.418  0.00  0.00    +0.055 C 
BRANCH  61  62
ATOM     62  CG  GLU A   5      19.999  24.822  30.479  0.00  0.00    -0.020 A 
ATOM     63  CD2 GLU A   5      19.000  24.523  31.417  0.00  0.00    -0.001 A 
ATOM     64  CE2 GLU A   5      18.634  25.466  32.423  0.00  0.00    +0.036 A 
ATOM     65  CZ  GLU A   5      19.285  26.691  32.452  0.00  0.00    +0.134 A 
ATOM     66  CE1 GLU A   5      20.260  26.985  31.536  0.00  0.00    +0.036 A 
ATOM     67  CD1 GLU A   5      20.608  26.052  30.546  0.00  0.00    -0.001 A 
BRANCH  65  68
ATOM     68  OH  GLU A   5      18.948  27.624  33.422  0.00  0.00    -0.506 OA
ATOM     69  HH  GLU A   5      19.745  27.828  33.973  0.00  0.00    +0.292 HD
ENDBRANCH  65  68
ENDBRANCH  61  62
ENDBRANCH  11  61
ENDBRANCH   7  11
ENDBRANCH   6   8
ENDBRANCH   2   6
ENDBRANCH   1   3
BRANCH   1  70
ATOM     70  C   LEU A   7      13.098  18.683  28.725  0.00  0.00    +0.228 C 
ATOM     71  O   LEU A   7      12.335  19.646  28.470  0.00  0.00    -0.286 OA
ENDBRANCH   1  70
BRANCH   1  72
ATOM     72  CB  LEU A   7      13.965  18.462  31.085  0.00  0.00    +0.096 C 
BRANCH  72  73
ATOM     73  SG  LEU A   7      13.061  19.719  32.022  0.00  0.00    -0.080 S 
BRANCH  73  74
ATOM     74  SG  CYS A   3      14.439  20.922  32.878  0.00  0.00    -0.080 S 
BRANCH  74  75
ATOM     75  CB  CYS A   3      14.805  20.299  34.533  0.00  0.00    +0.098 C 
BRANCH  75  76
ATOM     76  CA  CYS A   3      13.735  20.667  35.569  0.00  0.00    +0.160 C 
BRANCH  76  77
ATOM     77  C   CYS A   3      12.383  19.996  35.278  0.00  0.00    +0.242 C 
ATOM     78  N   VAL A   4      12.312  18.678  35.487  0.00  0.00    -0.297 N 
ATOM     79  H   VAL A   4      13.139  18.173  35.866  0.00  0.00    +0.150 HD
ATOM     80  O   CYS A   3      11.412  20.669  34.899  0.00  0.00    -0.273 OA
BRANCH  78  81
ATOM     81  CA  VAL A   4      11.100  17.944  35.193  0.00  0.00    +0.149 C 
BRANCH  81  82
ATOM     82  C   VAL A   4      10.003  18.328  36.188  0.00  0.00    +0.241 C 
ATOM     83  N   GLU A   5      10.363  18.473  37.464  0.00  0.00    -0.297 N 
ATOM     84  H   GLU A   5      11.359  18.338  37.730  0.00  0.00    +0.150 HD
ATOM     85  O   VAL A   4       8.859  18.484  35.797  0.00  0.00    -0.273 OA
BRANCH  83  86
ATOM     86  CA  GLU A   5       9.378  18.821  38.506  0.00  0.00    +0.149 C 
BRANCH  86  87
ATOM     87  C   GLU A   5       8.714  20.175  38.262  0.00  0.00    +0.241 C 
ATOM     88  O   GLU A   5       7.483  20.325  38.339  0.00  0.00    -0.273 OA
ATOM     89  N   TRP A   6       9.532  21.165  37.934  0.00  0.00    -0.297 N 
ATOM     90  H   TRP A   6      10.555  20.993  37.862  0.00  0.00    +0.150 HD
BRANCH  89  91
ATOM     91  CA  TRP A   6       8.996  22.494  37.674  0.00  0.00    +0.153 C 
BRANCH  91  92
ATOM     92  C   TRP A   6       8.269  22.590  36.322  0.00  0.00    +0.241 C 
ATOM     93  O   TRP A   6       7.254  23.291  36.195  0.00  0.00    -0.273 OA
ATOM     94  N   LEU A   7       8.758  21.870  35.317  0.00  0.00    -0.298 N 
ATOM     95  H   LEU A   7       9.642  21.336  35.443  0.00  0.00    +0.150 HD
BRANCH  94  96
ATOM     96  CA  LEU A   7       8.057  21.826  34.034  0.00  0.00    +0.137 C 
BRANCH  96  97
ATOM     97  C   LEU A   7       6.644  21.269  34.260  0.00  0.00    +0.227 C 
ATOM     98  O   LEU A   7       5.655  21.840  33.775  0.00  0.00    -0.286 OA
ENDBRANCH  96  97
BRANCH  96  99
ATOM     99  CB  LEU A   7       8.812  20.974  33.012  0.00  0.00    +0.028 C 
BRANCH  99 100
ATOM    100  CG  LEU A   7       8.087  20.713  31.694  0.00  0.00    +0.002 C 
ATOM    101  CD2 LEU A   7       7.589  22.049  31.082  0.00  0.00    +0.000 C 
ATOM    102  CD1 LEU A   7       9.028  19.995  30.734  0.00  0.00    +0.000 C 
ENDBRANCH  99 100
ENDBRANCH  96  99
ENDBRANCH  94  96
ENDBRANCH  91  92
BRANCH  91 103
ATOM    103  CB  TRP A   6      10.094  23.551  37.898  0.00  0.00    +0.057 C 
BRANCH 103 104
ATOM    104  CG  TRP A   6      10.284  23.762  39.367  0.00  0.00    -0.002 A 
ATOM    105  CD1 TRP A   6      11.028  22.982  40.238  0.00  0.00    +0.068 A 
ATOM    106  NE1 TRP A   6      10.906  23.474  41.520  0.00  0.00    -0.352 N 
ATOM    107  HE1 TRP A   6      11.371  23.083  42.364  0.00  0.00    +0.166 HD
ATOM    108  CE2 TRP A   6      10.068  24.568  41.503  0.00  0.00    +0.056 A 
ATOM    109  CZ2 TRP A   6       9.658  25.414  42.553  0.00  0.00    +0.017 A 
ATOM    110  CH2 TRP A   6       8.810  26.455  42.252  0.00  0.00    +0.001 A 
ATOM    111  CZ3 TRP A   6       8.379  26.684  40.939  0.00  0.00    +0.000 A 
ATOM    112  CE3 TRP A   6       8.812  25.853  39.877  0.00  0.00    +0.001 A 
ATOM    113  CD2 TRP A   6       9.661  24.772  40.163  0.00  0.00    +0.013 A 
ENDBRANCH 103 104
ENDBRANCH  91 103
ENDBRANCH  89  91
ENDBRANCH  86  87
BRANCH  86 114
ATOM    114  CB  GLU A   5      10.064  18.806  39.869  0.00  0.00    +0.041 C 
BRANCH 114 115
ATOM    115  CG  GLU A   5      10.453  17.400  40.337  0.00  0.00    +0.116 C 
BRANCH 115 116
ATOM    116  CD  GLU A   5      11.559  17.421  41.390  0.00  0.00    +0.365 C 
ATOM    117  OE2 GLU A   5      11.842  18.503  41.950  0.00  0.00    -0.246 OA
ATOM    118  OE1 GLU A   5      12.153  16.352  41.654  0.00  0.00    -0.246 OA
ENDBRANCH 115 116
ENDBRANCH 114 115
ENDBRANCH  86 114
ENDBRANCH  83  86
ENDBRANCH  81  82
BRANCH  81 119
ATOM    119  CB  VAL A   4      11.354  16.417  35.210  0.00  0.00    +0.027 C 
ATOM    120  CG2 VAL A   4      10.053  15.659  35.003  0.00  0.00    +0.002 C 
ATOM    121  CG1 VAL A   4      12.348  16.033  34.100  0.00  0.00    +0.002 C 
ENDBRANCH  81 119
ENDBRANCH  78  81
ENDBRANCH  76  77
BRANCH  76 122
ATOM    122  N   CYS A   3      14.190  20.312  36.913  0.00  0.00    -0.296 N 
ATOM    123  C   LEU A   2      13.442  20.608  37.976  0.00  0.00    +0.241 C 
ATOM    124  O   LEU A   2      12.329  21.093  37.888  0.00  0.00    -0.273 OA
ATOM    125  H   CYS A   3      15.101  19.827  37.040  0.00  0.00    +0.150 HD
BRANCH 123 126
ATOM    126  CA  LEU A   2      14.020  20.306  39.348  0.00  0.00    +0.149 C 
BRANCH 126 127
ATOM    127  N   LEU A   2      14.700  19.007  39.430  0.00  0.00    -0.297 N 
ATOM    128  H   LEU A   2      15.653  18.979  39.846  0.00  0.00    +0.150 HD
ATOM    129  C   GLY A   1      14.170  17.865  39.004  0.00  0.00    +0.240 C 
ATOM    130  O   GLY A   1      13.071  17.772  38.433  0.00  0.00    -0.274 OA
BRANCH 129 131
ATOM    131  CA  GLY A   1      15.031  16.640  39.195  0.00  0.00    +0.169 C 
BRANCH 131 132
ATOM    132  N   GLY A   1      15.644  16.193  37.941  0.00  0.00    -0.236 NA
ATOM    133  H   GLY A   1      16.412  16.774  37.549  0.00  0.00    +0.142 HD
ENDBRANCH 131 132
ENDBRANCH 129 131
ENDBRANCH 126 127
BRANCH 126 134
ATOM    134  CB  LEU A   2      14.955  21.435  39.734  0.00  0.00    +0.029 C 
BRANCH 134 135
ATOM    135  CG  LEU A   2      15.289  21.537  41.226  0.00  0.00    +0.002 C 
ATOM    136  CD2 LEU A   2      14.046  21.719  42.089  0.00  0.00    +0.000 C 
ATOM    137  CD1 LEU A   2      16.253  22.669  41.465  0.00  0.00    +0.000 C 
ENDBRANCH 134 135
ENDBRANCH 126 134
ENDBRANCH 123 126
ENDBRANCH  76 122
ENDBRANCH  75  76
ENDBRANCH  74  75
ENDBRANCH  73  74
ENDBRANCH  72  73
ENDBRANCH   1  72
TORSDOF 58
REMARK  Name = ../refined-set-2016/1xr9/1xr9_pocket.pdb
REMARK  377 active torsions:
REMARK  status: ('A' for Active; 'I' for Inactive)
REMARK    1  A    between atoms: _1  and  _3
REMARK    2  A    between atoms: _3  and  _4
REMARK    3  A    between atoms: _3  and  _6
REMARK    4  A    between atoms: _6  and  _7
REMARK    5  A    between atoms: _7  and  _8
REMARK    6  A    between atoms: _10  and  _12
REMARK    7  A    between atoms: _12  and  _13
REMARK    8  A    between atoms: _12  and  _15
REMARK    9  A    between atoms: _15  and  _16
REMARK   10  A    between atoms: _16  and  _17
REMARK   11  A    between atoms: _17  and  _18
REMARK   12  A    between atoms: _27  and  _29
REMARK   13  A    between atoms: _29  and  _30
REMARK   14  A    between atoms: _29  and  _32
REMARK   15  A    between atoms: _32  and  _33
REMARK   16  A    between atoms: _38  and  _39
REMARK   17  A    between atoms: _41  and  _43
REMARK   18  A    between atoms: _43  and  _44
REMARK   19  A    between atoms: _43  and  _46
REMARK   20  A    between atoms: _46  and  _47
REMARK   21  A    between atoms: _53  and  _55
REMARK   22  A    between atoms: _55  and  _56
REMARK   23  A    between atoms: _55  and  _58
REMARK   24  A    between atoms: _58  and  _59
REMARK   25  A    between atoms: _64  and  _65
REMARK   26  A    between atoms: _67  and  _69
REMARK   27  A    between atoms: _69  and  _70
REMARK   28  A    between atoms: _69  and  _72
REMARK   29  A    between atoms: _72  and  _73
REMARK   30  A    between atoms: _79  and  _81
REMARK   31  A    between atoms: _81  and  _82
REMARK   32  A    between atoms: _85  and  _87
REMARK   33  A    between atoms: _87  and  _88
REMARK   34  A    between atoms: _87  and  _90
REMARK   35  A    between atoms: _93  and  _95
REMARK   36  A    between atoms: _95  and  _96
REMARK   37  A    between atoms: _98  and  _100
REMARK   38  A    between atoms: _100  and  _101
REMARK   39  A    between atoms: _100  and  _103
REMARK   40  A    between atoms: _106  and  _108
REMARK   41  A    between atoms: _108  and  _109
REMARK   42  A    between atoms: _108  and  _111
REMARK   43  A    between atoms: _111  and  _112
REMARK   44  A    between atoms: _118  and  _120
REMARK   45  A    between atoms: _120  and  _121
REMARK   46  A    between atoms: _120  and  _123
REMARK   47  A    between atoms: _126  and  _128
REMARK   48  A    between atoms: _128  and  _129
REMARK   49  A    between atoms: _128  and  _131
REMARK   50  A    between atoms: _131  and  _132
REMARK   51  A    between atoms: _138  and  _140
REMARK   52  A    between atoms: _140  and  _141
REMARK   53  A    between atoms: _140  and  _143
REMARK   54  A    between atoms: _143  and  _144
REMARK   55  A    between atoms: _144  and  _145
REMARK   56  A    between atoms: _147  and  _149
REMARK   57  A    between atoms: _149  and  _150
REMARK   58  A    between atoms: _149  and  _152
REMARK   59  A    between atoms: _152  and  _153
REMARK   60  A    between atoms: _156  and  _158
REMARK   61  A    between atoms: _158  and  _159
REMARK   62  A    between atoms: _158  and  _161
REMARK   63  A    between atoms: _161  and  _162
REMARK   64  A    between atoms: _162  and  _163
REMARK   65  A    between atoms: _166  and  _168
REMARK   66  A    between atoms: _168  and  _169
REMARK   67  A    between atoms: _168  and  _171
REMARK   68  A    between atoms: _171  and  _172
REMARK   69  A    between atoms: _172  and  _173
REMARK   70  A    between atoms: _176  and  _178
REMARK   71  A    between atoms: _178  and  _179
REMARK   72  A    between atoms: _178  and  _181
REMARK   73  A    between atoms: _181  and  _182
REMARK   74  A    between atoms: _187  and  _188
REMARK   75  A    between atoms: _190  and  _192
REMARK   76  A    between atoms: _192  and  _193
REMARK   77  A    between atoms: _192  and  _195
REMARK   78  A    between atoms: _195  and  _196
REMARK   79  A    between atoms: _206  and  _208
REMARK   80  A    between atoms: _208  and  _209
REMARK   81  A    between atoms: _208  and  _211
REMARK   82  A    between atoms: _211  and  _212
REMARK   83  A    between atoms: _215  and  _217
REMARK   84  A    between atoms: _217  and  _218
REMARK   85  A    between atoms: _217  and  _220
REMARK   86  A    between atoms: _220  and  _221
REMARK   87  A    between atoms: _221  and  _222
REMARK   88  A    between atoms: _222  and  _223
REMARK   89  A    between atoms: _232  and  _234
REMARK   90  A    between atoms: _234  and  _235
REMARK   91  A    between atoms: _234  and  _237
REMARK   92  A    between atoms: _237  and  _238
REMARK   93  A    between atoms: _238  and  _239
REMARK   94  A    between atoms: _242  and  _244
REMARK   95  A    between atoms: _244  and  _245
REMARK   96  A    between atoms: _244  and  _247
REMARK   97  A    between atoms: _247  and  _248
REMARK   98  A    between atoms: _251  and  _253
REMARK   99  A    between atoms: _253  and  _254
REMARK  100  A    between atoms: _253  and  _256
REMARK  101  A    between atoms: _256  and  _257
REMARK  102  A    between atoms: _257  and  _258
REMARK  103  A    between atoms: _263  and  _265
REMARK  104  A    between atoms: _265  and  _266
REMARK  105  A    between atoms: _265  and  _268
REMARK  106  A    between atoms: _268  and  _269
REMARK  107  A    between atoms: _272  and  _274
REMARK  108  A    between atoms: _274  and  _275
REMARK  109  A    between atoms: _274  and  _277
REMARK  110  A    between atoms: _277  and  _278
REMARK  111  A    between atoms: _280  and  _282
REMARK  112  A    between atoms: _282  and  _283
REMARK  113  A    between atoms: _282  and  _285
REMARK  114  A    between atoms: _285  and  _286
REMARK  115  A    between atoms: _286  and  _287
REMARK  116  A    between atoms: _287  and  _288
REMARK  117  A    between atoms: _288  and  _289
REMARK  118  A    between atoms: _293  and  _295
REMARK  119  A    between atoms: _295  and  _296
REMARK  120  A    between atoms: _295  and  _298
REMARK  121  A    between atoms: _298  and  _299
REMARK  122  A    between atoms: _302  and  _304
REMARK  123  A    between atoms: _304  and  _305
REMARK  124  A    between atoms: _304  and  _307
REMARK  125  A    between atoms: _307  and  _308
REMARK  126  A    between atoms: _313  and  _315
REMARK  127  A    between atoms: _315  and  _316
REMARK  128  A    between atoms: _315  and  _318
REMARK  129  A    between atoms: _318  and  _319
REMARK  130  A    between atoms: _319  and  _320
REMARK  131  A    between atoms: _325  and  _327
REMARK  132  A    between atoms: _327  and  _328
REMARK  133  A    between atoms: _327  and  _330
REMARK  134  A    between atoms: _330  and  _331
REMARK  135  A    between atoms: _334  and  _336
REMARK  136  A    between atoms: _336  and  _337
REMARK  137  A    between atoms: _336  and  _339
REMARK  138  A    between atoms: _339  and  _340
REMARK  139  A    between atoms: _345  and  _346
REMARK  140  A    between atoms: _348  and  _350
REMARK  141  A    between atoms: _350  and  _351
REMARK  142  A    between atoms: _350  and  _353
REMARK  143  A    between atoms: _353  and  _354
REMARK  144  A    between atoms: _354  and  _355
REMARK  145  A    between atoms: _355  and  _356
REMARK  146  A    between atoms: _365  and  _367
REMARK  147  A    between atoms: _367  and  _368
REMARK  148  A    between atoms: _367  and  _370
REMARK  149  A    between atoms: _370  and  _371
REMARK  150  A    between atoms: _371  and  _372
REMARK  151  A    between atoms: _375  and  _377
REMARK  152  A    between atoms: _377  and  _378
REMARK  153  A    between atoms: _377  and  _380
REMARK  154  A    between atoms: _380  and  _381
REMARK  155  A    between atoms: _383  and  _385
REMARK  156  A    between atoms: _385  and  _386
REMARK  157  A    between atoms: _385  and  _388
REMARK  158  A    between atoms: _388  and  _389
REMARK  159  A    between atoms: _392  and  _394
REMARK  160  A    between atoms: _394  and  _395
REMARK  161  A    between atoms: _394  and  _397
REMARK  162  A    between atoms: _397  and  _398
REMARK  163  A    between atoms: _398  and  _399
REMARK  164  A    between atoms: _399  and  _400
REMARK  165  A    between atoms: _409  and  _411
REMARK  166  A    between atoms: _411  and  _412
REMARK  167  A    between atoms: _411  and  _414
REMARK  168  A    between atoms: _414  and  _415
REMARK  169  A    between atoms: _420  and  _422
REMARK  170  A    between atoms: _422  and  _423
REMARK  171  A    between atoms: _422  and  _425
REMARK  172  A    between atoms: _425  and  _426
REMARK  173  A    between atoms: _429  and  _431
REMARK  174  A    between atoms: _431  and  _432
REMARK  175  A    between atoms: _431  and  _434
REMARK  176  A    between atoms: _434  and  _435
REMARK  177  A    between atoms: _440  and  _441
REMARK  178  A    between atoms: _443  and  _445
REMARK  179  A    between atoms: _445  and  _446
REMARK  180  A    between atoms: _445  and  _448
REMARK  181  A    between atoms: _448  and  _449
REMARK  182  A    between atoms: _452  and  _454
REMARK  183  A    between atoms: _454  and  _455
REMARK  184  A    between atoms: _454  and  _457
REMARK  185  A    between atoms: _457  and  _458
REMARK  186  A    between atoms: _458  and  _459
REMARK  187  A    between atoms: _464  and  _466
REMARK  188  A    between atoms: _466  and  _467
REMARK  189  A    between atoms: _466  and  _469
REMARK  190  A    between atoms: _469  and  _470
REMARK  191  A    between atoms: _470  and  _471
REMARK  192  A    between atoms: _471  and  _472
REMARK  193  A    between atoms: _481  and  _483
REMARK  194  A    between atoms: _483  and  _484
REMARK  195  A    between atoms: _483  and  _486
REMARK  196  A    between atoms: _486  and  _487
REMARK  197  A    between atoms: _487  and  _488
REMARK  198  A    between atoms: _490  and  _492
REMARK  199  A    between atoms: _492  and  _493
REMARK  200  A    between atoms: _492  and  _495
REMARK  201  A    between atoms: _495  and  _496
REMARK  202  A    between atoms: _501  and  _502
REMARK  203  A    between atoms: _504  and  _506
REMARK  204  A    between atoms: _506  and  _507
REMARK  205  A    between atoms: _509  and  _511
REMARK  206  A    between atoms: _511  and  _512
REMARK  207  A    between atoms: _511  and  _514
REMARK  208  A    between atoms: _514  and  _515
REMARK  209  A    between atoms: _515  and  _869
REMARK  210  A    between atoms: _516  and  _518
REMARK  211  A    between atoms: _518  and  _519
REMARK  212  A    between atoms: _518  and  _521
REMARK  213  A    between atoms: _521  and  _522
REMARK  214  A    between atoms: _525  and  _527
REMARK  215  A    between atoms: _527  and  _528
REMARK  216  A    between atoms: _527  and  _530
REMARK  217  A    between atoms: _530  and  _531
REMARK  218  A    between atoms: _531  and  _532
REMARK  219  A    between atoms: _537  and  _539
REMARK  220  A    between atoms: _539  and  _540
REMARK  221  A    between atoms: _539  and  _542
REMARK  222  A    between atoms: _542  and  _543
REMARK  223  A    between atoms: _545  and  _547
REMARK  224  A    between atoms: _547  and  _548
REMARK  225  A    between atoms: _551  and  _553
REMARK  226  A    between atoms: _553  and  _554
REMARK  227  A    between atoms: _553  and  _556
REMARK  228  A    between atoms: _556  and  _557
REMARK  229  A    between atoms: _562  and  _563
REMARK  230  A    between atoms: _565  and  _567
REMARK  231  A    between atoms: _567  and  _568
REMARK  232  A    between atoms: _567  and  _570
REMARK  233  A    between atoms: _570  and  _571
REMARK  234  A    between atoms: _576  and  _577
REMARK  235  A    between atoms: _579  and  _581
REMARK  236  A    between atoms: _581  and  _582
REMARK  237  A    between atoms: _581  and  _584
REMARK  238  A    between atoms: _584  and  _585
REMARK  239  A    between atoms: _588  and  _590
REMARK  240  A    between atoms: _590  and  _591
REMARK  241  A    between atoms: _594  and  _596
REMARK  242  A    between atoms: _596  and  _597
REMARK  243  A    between atoms: _596  and  _599
REMARK  244  A    between atoms: _599  and  _600
REMARK  245  A    between atoms: _610  and  _612
REMARK  246  A    between atoms: _612  and  _613
REMARK  247  A    between atoms: _616  and  _618
REMARK  248  A    between atoms: _618  and  _619
REMARK  249  A    between atoms: _622  and  _624
REMARK  250  A    between atoms: _624  and  _625
REMARK  251  A    between atoms: _624  and  _627
REMARK  252  A    between atoms: _627  and  _628
REMARK  253  A    between atoms: _628  and  _629
REMARK  254  A    between atoms: _634  and  _636
REMARK  255  A    between atoms: _636  and  _637
REMARK  256  A    between atoms: _636  and  _639
REMARK  257  A    between atoms: _639  and  _640
REMARK  258  A    between atoms: _643  and  _645
REMARK  259  A    between atoms: _645  and  _646
REMARK  260  A    between atoms: _645  and  _648
REMARK  261  A    between atoms: _648  and  _649
REMARK  262  A    between atoms: _652  and  _654
REMARK  263  A    between atoms: _654  and  _655
REMARK  264  A    between atoms: _654  and  _657
REMARK  265  A    between atoms: _657  and  _658
REMARK  266  A    between atoms: _658  and  _659
REMARK  267  A    between atoms: _664  and  _666
REMARK  268  A    between atoms: _666  and  _667
REMARK  269  A    between atoms: _666  and  _669
REMARK  270  A    between atoms: _669  and  _670
REMARK  271  A    between atoms: _670  and  _671
REMARK  272  A    between atoms: _671  and  _672
REMARK  273  A    between atoms: _681  and  _683
REMARK  274  A    between atoms: _683  and  _684
REMARK  275  A    between atoms: _683  and  _686
REMARK  276  A    between atoms: _686  and  _687
REMARK  277  A    between atoms: _687  and  _688
REMARK  278  A    between atoms: _688  and  _689
REMARK  279  A    between atoms: _689  and  _690
REMARK  280  A    between atoms: _694  and  _696
REMARK  281  A    between atoms: _696  and  _697
REMARK  282  A    between atoms: _696  and  _699
REMARK  283  A    between atoms: _699  and  _700
REMARK  284  A    between atoms: _710  and  _712
REMARK  285  A    between atoms: _712  and  _713
REMARK  286  A    between atoms: _712  and  _715
REMARK  287  A    between atoms: _715  and  _716
REMARK  288  A    between atoms: _716  and  _717
REMARK  289  A    between atoms: _720  and  _722
REMARK  290  A    between atoms: _722  and  _723
REMARK  291  A    between atoms: _726  and  _728
REMARK  292  A    between atoms: _728  and  _729
REMARK  293  A    between atoms: _732  and  _734
REMARK  294  A    between atoms: _734  and  _735
REMARK  295  A    between atoms: _734  and  _737
REMARK  296  A    between atoms: _737  and  _738
REMARK  297  A    between atoms: _738  and  _739
REMARK  298  A    between atoms: _739  and  _740
REMARK  299  A    between atoms: _749  and  _751
REMARK  300  A    between atoms: _751  and  _752
REMARK  301  A    between atoms: _751  and  _754
REMARK  302  A    between atoms: _754  and  _755
REMARK  303  A    between atoms: _755  and  _756
REMARK  304  A    between atoms: _759  and  _761
REMARK  305  A    between atoms: _761  and  _762
REMARK  306  A    between atoms: _765  and  _767
REMARK  307  A    between atoms: _767  and  _768
REMARK  308  A    between atoms: _767  and  _770
REMARK  309  A    between atoms: _770  and  _771
REMARK  310  A    between atoms: _771  and  _772
REMARK  311  A    between atoms: _775  and  _777
REMARK  312  A    between atoms: _777  and  _778
REMARK  313  A    between atoms: _777  and  _780
REMARK  314  A    between atoms: _780  and  _781
REMARK  315  A    between atoms: _781  and  _782
REMARK  316  A    between atoms: _787  and  _789
REMARK  317  A    between atoms: _789  and  _790
REMARK  318  A    between atoms: _789  and  _792
REMARK  319  A    between atoms: _792  and  _793
REMARK  320  A    between atoms: _803  and  _805
REMARK  321  A    between atoms: _805  and  _806
REMARK  322  A    between atoms: _805  and  _808
REMARK  323  A    between atoms: _808  and  _809
REMARK  324  A    between atoms: _809  and  _810
REMARK  325  A    between atoms: _810  and  _811
REMARK  326  A    between atoms: _820  and  _822
REMARK  327  A    between atoms: _822  and  _823
REMARK  328  A    between atoms: _826  and  _828
REMARK  329  A    between atoms: _828  and  _829
REMARK  330  A    between atoms: _828  and  _831
REMARK  331  A    between atoms: _831  and  _832
REMARK  332  A    between atoms: _837  and  _838
REMARK  333  A    between atoms: _840  and  _842
REMARK  334  A    between atoms: _842  and  _843
REMARK  335  A    between atoms: _842  and  _845
REMARK  336  A    between atoms: _845  and  _846
REMARK  337  A    between atoms: _849  and  _851
REMARK  338  A    between atoms: _851  and  _852
REMARK  339  A    between atoms: _854  and  _856
REMARK  340  A    between atoms: _856  and  _857
REMARK  341  A    between atoms: _856  and  _859
REMARK  342  A    between atoms: _859  and  _860
REMARK  343  A    between atoms: _863  and  _865
REMARK  344  A    between atoms: _865  and  _866
REMARK  345  A    between atoms: _865  and  _868
REMARK  346  A    between atoms: _868  and  _869
REMARK  347  A    between atoms: _870  and  _872
REMARK  348  A    between atoms: _872  and  _873
REMARK  349  A    between atoms: _872  and  _875
REMARK  350  A    between atoms: _878  and  _880
REMARK  351  A    between atoms: _880  and  _881
REMARK  352  A    between atoms: _880  and  _883
REMARK  353  A    between atoms: _883  and  _884
REMARK  354  A    between atoms: _884  and  _885
REMARK  355  A    between atoms: _888  and  _890
REMARK  356  A    between atoms: _890  and  _891
REMARK  357  A    between atoms: _890  and  _893
REMARK  358  A    between atoms: _893  and  _894
REMARK  359  A    between atoms: _904  and  _906
REMARK  360  A    between atoms: _906  and  _907
REMARK  361  A    between atoms: _906  and  _909
REMARK  362  A    between atoms: _909  and  _910
REMARK  363  A    between atoms: _913  and  _915
REMARK  364  A    between atoms: _915  and  _916
REMARK  365  A    between atoms: _915  and  _918
REMARK  366  A    between atoms: _918  and  _919
REMARK  367  A    between atoms: _919  and  _920
REMARK  368  A    between atoms: _920  and  _921
REMARK  369  A    between atoms: _930  and  _932
REMARK  370  A    between atoms: _932  and  _933
REMARK  371  A    between atoms: _932  and  _935
REMARK  372  A    between atoms: _935  and  _936
REMARK  373  A    between atoms: _941  and  _942
REMARK  374  A    between atoms: _944  and  _946
REMARK  375  A    between atoms: _946  and  _947
REMARK  376  A    between atoms: _946  and  _949
REMARK  377  A    between atoms: _949  and  _950
REMARK                            x       y       z     vdW  Elec       q    Type
REMARK                         _______ _______ _______ _____ _____    ______ ____
ROOT
ATOM      1  CA  SER A   3      26.826  25.923  24.125  0.00  0.00    +0.178 C 
ENDROOT
BRANCH   1   2
ATOM      2  C   SER A   3      27.458  26.165  22.769  0.00  0.00    +0.243 C 
ATOM      3  N   ALA A   4      27.472  27.442  22.372  0.00  0.00    -0.297 N 
ATOM      4  H   ALA A   4      27.017  28.154  22.978  0.00  0.00    +0.150 HD
ATOM      5  O   SER A   3      27.947  25.204  22.107  0.00  0.00    -0.273 OA
BRANCH   3   6
ATOM      6  CA  ALA A   4      28.093  27.882  21.133  0.00  0.00    +0.149 C 
ATOM      7  CB  ALA A   4      27.034  28.140  20.090  0.00  0.00    +0.031 C 
BRANCH   6   8
ATOM      8  C   ALA A   4      28.880  29.143  21.369  0.00  0.00    +0.241 C 
ATOM      9  O   ALA A   4      28.494  29.954  22.228  0.00  0.00    -0.273 OA
ATOM     10  N   TYR A   5      29.946  29.326  20.601  0.00  0.00    -0.298 N 
ATOM     11  H   TYR A   5      30.207  28.585  19.920  0.00  0.00    +0.150 HD
BRANCH  10  12
ATOM     12  CA  TYR A   5      30.769  30.538  20.680  0.00  0.00    +0.141 C 
BRANCH  12  13
ATOM     13  C   TYR A   5      30.818  31.142  19.289  0.00  0.00    +0.227 C 
ATOM     14  O   TYR A   5      31.135  30.452  18.300  0.00  0.00    -0.286 OA
ENDBRANCH  12  13
BRANCH  12  15
ATOM     15  CB  TYR A   5      32.165  30.201  21.212  0.00  0.00    +0.054 C 
BRANCH  15  16
ATOM     16  CG  TYR A   5      33.056  31.409  21.401  0.00  0.00    -0.020 A 
ATOM     17  CD2 TYR A   5      32.701  32.445  22.293  0.00  0.00    -0.001 A 
ATOM     18  CE2 TYR A   5      33.551  33.556  22.510  0.00  0.00    +0.036 A 
ATOM     19  CZ  TYR A   5      34.731  33.646  21.761  0.00  0.00    +0.134 A 
ATOM     20  CE1 TYR A   5      35.079  32.643  20.833  0.00  0.00    +0.036 A 
ATOM     21  CD1 TYR A   5      34.248  31.538  20.655  0.00  0.00    -0.001 A 
BRANCH  19  22
ATOM     22  OH  TYR A   5      35.591  34.710  21.877  0.00  0.00    -0.506 OA
ATOM     23  HH  TYR A   5      35.242  35.343  22.554  0.00  0.00    +0.292 HD
ENDBRANCH  19  22
ENDBRANCH  15  16
ENDBRANCH  12  15
ENDBRANCH  10  12
ENDBRANCH   6   8
ENDBRANCH   3   6
ENDBRANCH   1   2
BRANCH   1  26
ATOM     24  C   GLN A   2      25.119  24.286  24.695  0.00  0.00    +0.241 C 
ATOM     25  O   GLN A   2      24.345  25.137  25.126  0.00  0.00    -0.273 OA
ATOM     26  N   SER A   3      26.337  24.559  24.226  0.00  0.00    -0.295 N 
ATOM     27  H   SER A   3      26.952  23.776  23.925  0.00  0.00    +0.150 HD
BRANCH  24  28
ATOM     28  CA  GLN A   2      24.685  22.842  24.667  0.00  0.00    +0.149 C 
BRANCH  28  31
ATOM     29  C   ASP A   1      23.819  21.525  26.535  0.00  0.00    +0.239 C 
ATOM     30  O   ASP A   1      24.689  20.645  26.368  0.00  0.00    -0.274 OA
ATOM     31  N   GLN A   2      23.772  22.640  25.808  0.00  0.00    -0.297 N 
ATOM     32  H   GLN A   2      23.081  23.379  26.048  0.00  0.00    +0.150 HD
BRANCH  29  33
ATOM     33  CA  ASP A   1      22.744  21.364  27.613  0.00  0.00    +0.156 C 
BRANCH  33  34
ATOM     34  N   ASP A   1      21.973  20.197  27.257  0.00  0.00    -0.238 NA
ATOM     35  H   ASP A   1      22.396  19.479  26.635  0.00  0.00    +0.142 HD
ENDBRANCH  33  34
BRANCH  33  36
ATOM     36  CB  ASP A   1      23.406  21.166  28.966  0.00  0.00    +0.140 C 
BRANCH  36  37
ATOM     37  CG  ASP A   1      24.397  22.262  29.264  0.00  0.00    +0.367 C 
ATOM     38  OD2 ASP A   1      25.483  22.046  29.806  0.00  0.00    -0.246 OA
ATOM     39  OD1 ASP A   1      24.099  23.415  28.944  0.00  0.00    -0.246 OA
ENDBRANCH  36  37
ENDBRANCH  33  36
ENDBRANCH  29  33
ENDBRANCH  28  31
BRANCH  28  40
ATOM     40  CB  GLN A   2      23.936  22.619  23.346  0.00  0.00    +0.039 C 
BRANCH  40  41
ATOM     41  CG  GLN A   2      23.310  21.270  23.154  0.00  0.00    +0.087 C 
BRANCH  41  42
ATOM     42  CD  GLN A   2      22.431  21.324  21.931  0.00  0.00    +0.219 C 
ATOM     43  NE2 GLN A   2      21.150  21.179  22.124  0.00  0.00    -0.329 N 
ATOM     44 HE21 GLN A   2      20.787  20.986  23.079  0.00  0.00    +0.145 HD
ATOM     45 HE22 GLN A   2      20.491  21.256  21.323  0.00  0.00    +0.145 HD
ATOM     46  OE1 GLN A   2      22.926  21.553  20.829  0.00  0.00    -0.275 OA
ENDBRANCH  41  42
ENDBRANCH  40  41
ENDBRANCH  28  40
ENDBRANCH  24  28
ENDBRANCH   1  26
BRANCH   1  47
ATOM     47  CB  SER A   3      27.894  26.192  25.209  0.00  0.00    +0.166 C 
BRANCH  47  48
ATOM     48  OG  SER A   3      27.372  25.994  26.505  0.00  0.00    -0.380 OA
ATOM     49  H   SER A   3      28.078  26.174  27.175  0.00  0.00    +0.211 HD
ENDBRANCH  47  48
ENDBRANCH   1  47
TORSDOF 20
REMARK  Name = ../refined-set-2016/1xr9/1xr9_pocket.pdb
REMARK  377 active torsions:
REMARK  status: ('A' for Active; 'I' for Inactive)
REMARK    1  A    between atoms: _1  and  _3
REMARK    2  A    between atoms: _3  and  _4
REMARK    3  A    between atoms: _3  and  _6
REMARK    4  A    between atoms: _6  and  _7
REMARK    5  A    between atoms: _7  and  _8
REMARK    6  A    between atoms: _10  and  _12
REMARK    7  A    between atoms: _12  and  _13
REMARK    8  A    between atoms: _12  and  _15
REMARK    9  A    between atoms: _15  and  _16
REMARK   10  A    between atoms: _16  and  _17
REMARK   11  A    between atoms: _17  and  _18
REMARK   12  A    between atoms: _27  and  _29
REMARK   13  A    between atoms: _29  and  _30
REMARK   14  A    between atoms: _29  and  _32
REMARK   15  A    between atoms: _32  and  _33
REMARK   16  A    between atoms: _38  and  _39
REMARK   17  A    between atoms: _41  and  _43
REMARK   18  A    between atoms: _43  and  _44
REMARK   19  A    between atoms: _43  and  _46
REMARK   20  A    between atoms: _46  and  _47
REMARK   21  A    between atoms: _53  and  _55
REMARK   22  A    between atoms: _55  and  _56
REMARK   23  A    between atoms: _55  and  _58
REMARK   24  A    between atoms: _58  and  _59
REMARK   25  A    between atoms: _64  and  _65
REMARK   26  A    between atoms: _67  and  _69
REMARK   27  A    between atoms: _69  and  _70
REMARK   28  A    between atoms: _69  and  _72
REMARK   29  A    between atoms: _72  and  _73
REMARK   30  A    between atoms: _79  and  _81
REMARK   31  A    between atoms: _81  and  _82
REMARK   32  A    between atoms: _85  and  _87
REMARK   33  A    between atoms: _87  and  _88
REMARK   34  A    between atoms: _87  and  _90
REMARK   35  A    between atoms: _93  and  _95
REMARK   36  A    between atoms: _95  and  _96
REMARK   37  A    between atoms: _98  and  _100
REMARK   38  A    between atoms: _100  and  _101
REMARK   39  A    between atoms: _100  and  _103
REMARK   40  A    between atoms: _106  and  _108
REMARK   41  A    between atoms: _108  and  _109
REMARK   42  A    between atoms: _108  and  _111
REMARK   43  A    between atoms: _111  and  _112
REMARK   44  A    between atoms: _118  and  _120
REMARK   45  A    between atoms: _120  and  _121
REMARK   46  A    between atoms: _120  and  _123
REMARK   47  A    between atoms: _126  and  _128
REMARK   48  A    between atoms: _128  and  _129
REMARK   49  A    between atoms: _128  and  _131
REMARK   50  A    between atoms: _131  and  _132
REMARK   51  A    between atoms: _138  and  _140
REMARK   52  A    between atoms: _140  and  _141
REMARK   53  A    between atoms: _140  and  _143
REMARK   54  A    between atoms: _143  and  _144
REMARK   55  A    between atoms: _144  and  _145
REMARK   56  A    between atoms: _147  and  _149
REMARK   57  A    between atoms: _149  and  _150
REMARK   58  A    between atoms: _149  and  _152
REMARK   59  A    between atoms: _152  and  _153
REMARK   60  A    between atoms: _156  and  _158
REMARK   61  A    between atoms: _158  and  _159
REMARK   62  A    between atoms: _158  and  _161
REMARK   63  A    between atoms: _161  and  _162
REMARK   64  A    between atoms: _162  and  _163
REMARK   65  A    between atoms: _166  and  _168
REMARK   66  A    between atoms: _168  and  _169
REMARK   67  A    between atoms: _168  and  _171
REMARK   68  A    between atoms: _171  and  _172
REMARK   69  A    between atoms: _172  and  _173
REMARK   70  A    between atoms: _176  and  _178
REMARK   71  A    between atoms: _178  and  _179
REMARK   72  A    between atoms: _178  and  _181
REMARK   73  A    between atoms: _181  and  _182
REMARK   74  A    between atoms: _187  and  _188
REMARK   75  A    between atoms: _190  and  _192
REMARK   76  A    between atoms: _192  and  _193
REMARK   77  A    between atoms: _192  and  _195
REMARK   78  A    between atoms: _195  and  _196
REMARK   79  A    between atoms: _206  and  _208
REMARK   80  A    between atoms: _208  and  _209
REMARK   81  A    between atoms: _208  and  _211
REMARK   82  A    between atoms: _211  and  _212
REMARK   83  A    between atoms: _215  and  _217
REMARK   84  A    between atoms: _217  and  _218
REMARK   85  A    between atoms: _217  and  _220
REMARK   86  A    between atoms: _220  and  _221
REMARK   87  A    between atoms: _221  and  _222
REMARK   88  A    between atoms: _222  and  _223
REMARK   89  A    between atoms: _232  and  _234
REMARK   90  A    between atoms: _234  and  _235
REMARK   91  A    between atoms: _234  and  _237
REMARK   92  A    between atoms: _237  and  _238
REMARK   93  A    between atoms: _238  and  _239
REMARK   94  A    between atoms: _242  and  _244
REMARK   95  A    between atoms: _244  and  _245
REMARK   96  A    between atoms: _244  and  _247
REMARK   97  A    between atoms: _247  and  _248
REMARK   98  A    between atoms: _251  and  _253
REMARK   99  A    between atoms: _253  and  _254
REMARK  100  A    between atoms: _253  and  _256
REMARK  101  A    between atoms: _256  and  _257
REMARK  102  A    between atoms: _257  and  _258
REMARK  103  A    between atoms: _263  and  _265
REMARK  104  A    between atoms: _265  and  _266
REMARK  105  A    between atoms: _265  and  _268
REMARK  106  A    between atoms: _268  and  _269
REMARK  107  A    between atoms: _272  and  _274
REMARK  108  A    between atoms: _274  and  _275
REMARK  109  A    between atoms: _274  and  _277
REMARK  110  A    between atoms: _277  and  _278
REMARK  111  A    between atoms: _280  and  _282
REMARK  112  A    between atoms: _282  and  _283
REMARK  113  A    between atoms: _282  and  _285
REMARK  114  A    between atoms: _285  and  _286
REMARK  115  A    between atoms: _286  and  _287
REMARK  116  A    between atoms: _287  and  _288
REMARK  117  A    between atoms: _288  and  _289
REMARK  118  A    between atoms: _293  and  _295
REMARK  119  A    between atoms: _295  and  _296
REMARK  120  A    between atoms: _295  and  _298
REMARK  121  A    between atoms: _298  and  _299
REMARK  122  A    between atoms: _302  and  _304
REMARK  123  A    between atoms: _304  and  _305
REMARK  124  A    between atoms: _304  and  _307
REMARK  125  A    between atoms: _307  and  _308
REMARK  126  A    between atoms: _313  and  _315
REMARK  127  A    between atoms: _315  and  _316
REMARK  128  A    between atoms: _315  and  _318
REMARK  129  A    between atoms: _318  and  _319
REMARK  130  A    between atoms: _319  and  _320
REMARK  131  A    between atoms: _325  and  _327
REMARK  132  A    between atoms: _327  and  _328
REMARK  133  A    between atoms: _327  and  _330
REMARK  134  A    between atoms: _330  and  _331
REMARK  135  A    between atoms: _334  and  _336
REMARK  136  A    between atoms: _336  and  _337
REMARK  137  A    between atoms: _336  and  _339
REMARK  138  A    between atoms: _339  and  _340
REMARK  139  A    between atoms: _345  and  _346
REMARK  140  A    between atoms: _348  and  _350
REMARK  141  A    between atoms: _350  and  _351
REMARK  142  A    between atoms: _350  and  _353
REMARK  143  A    between atoms: _353  and  _354
REMARK  144  A    between atoms: _354  and  _355
REMARK  145  A    between atoms: _355  and  _356
REMARK  146  A    between atoms: _365  and  _367
REMARK  147  A    between atoms: _367  and  _368
REMARK  148  A    between atoms: _367  and  _370
REMARK  149  A    between atoms: _370  and  _371
REMARK  150  A    between atoms: _371  and  _372
REMARK  151  A    between atoms: _375  and  _377
REMARK  152  A    between atoms: _377  and  _378
REMARK  153  A    between atoms: _377  and  _380
REMARK  154  A    between atoms: _380  and  _381
REMARK  155  A    between atoms: _383  and  _385
REMARK  156  A    between atoms: _385  and  _386
REMARK  157  A    between atoms: _385  and  _388
REMARK  158  A    between atoms: _388  and  _389
REMARK  159  A    between atoms: _392  and  _394
REMARK  160  A    between atoms: _394  and  _395
REMARK  161  A    between atoms: _394  and  _397
REMARK  162  A    between atoms: _397  and  _398
REMARK  163  A    between atoms: _398  and  _399
REMARK  164  A    between atoms: _399  and  _400
REMARK  165  A    between atoms: _409  and  _411
REMARK  166  A    between atoms: _411  and  _412
REMARK  167  A    between atoms: _411  and  _414
REMARK  168  A    between atoms: _414  and  _415
REMARK  169  A    between atoms: _420  and  _422
REMARK  170  A    between atoms: _422  and  _423
REMARK  171  A    between atoms: _422  and  _425
REMARK  172  A    between atoms: _425  and  _426
REMARK  173  A    between atoms: _429  and  _431
REMARK  174  A    between atoms: _431  and  _432
REMARK  175  A    between atoms: _431  and  _434
REMARK  176  A    between atoms: _434  and  _435
REMARK  177  A    between atoms: _440  and  _441
REMARK  178  A    between atoms: _443  and  _445
REMARK  179  A    between atoms: _445  and  _446
REMARK  180  A    between atoms: _445  and  _448
REMARK  181  A    between atoms: _448  and  _449
REMARK  182  A    between atoms: _452  and  _454
REMARK  183  A    between atoms: _454  and  _455
REMARK  184  A    between atoms: _454  and  _457
REMARK  185  A    between atoms: _457  and  _458
REMARK  186  A    between atoms: _458  and  _459
REMARK  187  A    between atoms: _464  and  _466
REMARK  188  A    between atoms: _466  and  _467
REMARK  189  A    between atoms: _466  and  _469
REMARK  190  A    between atoms: _469  and  _470
REMARK  191  A    between atoms: _470  and  _471
REMARK  192  A    between atoms: _471  and  _472
REMARK  193  A    between atoms: _481  and  _483
REMARK  194  A    between atoms: _483  and  _484
REMARK  195  A    between atoms: _483  and  _486
REMARK  196  A    between atoms: _486  and  _487
REMARK  197  A    between atoms: _487  and  _488
REMARK  198  A    between atoms: _490  and  _492
REMARK  199  A    between atoms: _492  and  _493
REMARK  200  A    between atoms: _492  and  _495
REMARK  201  A    between atoms: _495  and  _496
REMARK  202  A    between atoms: _501  and  _502
REMARK  203  A    between atoms: _504  and  _506
REMARK  204  A    between atoms: _506  and  _507
REMARK  205  A    between atoms: _509  and  _511
REMARK  206  A    between atoms: _511  and  _512
REMARK  207  A    between atoms: _511  and  _514
REMARK  208  A    between atoms: _514  and  _515
REMARK  209  A    between atoms: _515  and  _869
REMARK  210  A    between atoms: _516  and  _518
REMARK  211  A    between atoms: _518  and  _519
REMARK  212  A    between atoms: _518  and  _521
REMARK  213  A    between atoms: _521  and  _522
REMARK  214  A    between atoms: _525  and  _527
REMARK  215  A    between atoms: _527  and  _528
REMARK  216  A    between atoms: _527  and  _530
REMARK  217  A    between atoms: _530  and  _531
REMARK  218  A    between atoms: _531  and  _532
REMARK  219  A    between atoms: _537  and  _539
REMARK  220  A    between atoms: _539  and  _540
REMARK  221  A    between atoms: _539  and  _542
REMARK  222  A    between atoms: _542  and  _543
REMARK  223  A    between atoms: _545  and  _547
REMARK  224  A    between atoms: _547  and  _548
REMARK  225  A    between atoms: _551  and  _553
REMARK  226  A    between atoms: _553  and  _554
REMARK  227  A    between atoms: _553  and  _556
REMARK  228  A    between atoms: _556  and  _557
REMARK  229  A    between atoms: _562  and  _563
REMARK  230  A    between atoms: _565  and  _567
REMARK  231  A    between atoms: _567  and  _568
REMARK  232  A    between atoms: _567  and  _570
REMARK  233  A    between atoms: _570  and  _571
REMARK  234  A    between atoms: _576  and  _577
REMARK  235  A    between atoms: _579  and  _581
REMARK  236  A    between atoms: _581  and  _582
REMARK  237  A    between atoms: _581  and  _584
REMARK  238  A    between atoms: _584  and  _585
REMARK  239  A    between atoms: _588  and  _590
REMARK  240  A    between atoms: _590  and  _591
REMARK  241  A    between atoms: _594  and  _596
REMARK  242  A    between atoms: _596  and  _597
REMARK  243  A    between atoms: _596  and  _599
REMARK  244  A    between atoms: _599  and  _600
REMARK  245  A    between atoms: _610  and  _612
REMARK  246  A    between atoms: _612  and  _613
REMARK  247  A    between atoms: _616  and  _618
REMARK  248  A    between atoms: _618  and  _619
REMARK  249  A    between atoms: _622  and  _624
REMARK  250  A    between atoms: _624  and  _625
REMARK  251  A    between atoms: _624  and  _627
REMARK  252  A    between atoms: _627  and  _628
REMARK  253  A    between atoms: _628  and  _629
REMARK  254  A    between atoms: _634  and  _636
REMARK  255  A    between atoms: _636  and  _637
REMARK  256  A    between atoms: _636  and  _639
REMARK  257  A    between atoms: _639  and  _640
REMARK  258  A    between atoms: _643  and  _645
REMARK  259  A    between atoms: _645  and  _646
REMARK  260  A    between atoms: _645  and  _648
REMARK  261  A    between atoms: _648  and  _649
REMARK  262  A    between atoms: _652  and  _654
REMARK  263  A    between atoms: _654  and  _655
REMARK  264  A    between atoms: _654  and  _657
REMARK  265  A    between atoms: _657  and  _658
REMARK  266  A    between atoms: _658  and  _659
REMARK  267  A    between atoms: _664  and  _666
REMARK  268  A    between atoms: _666  and  _667
REMARK  269  A    between atoms: _666  and  _669
REMARK  270  A    between atoms: _669  and  _670
REMARK  271  A    between atoms: _670  and  _671
REMARK  272  A    between atoms: _671  and  _672
REMARK  273  A    between atoms: _681  and  _683
REMARK  274  A    between atoms: _683  and  _684
REMARK  275  A    between atoms: _683  and  _686
REMARK  276  A    between atoms: _686  and  _687
REMARK  277  A    between atoms: _687  and  _688
REMARK  278  A    between atoms: _688  and  _689
REMARK  279  A    between atoms: _689  and  _690
REMARK  280  A    between atoms: _694  and  _696
REMARK  281  A    between atoms: _696  and  _697
REMARK  282  A    between atoms: _696  and  _699
REMARK  283  A    between atoms: _699  and  _700
REMARK  284  A    between atoms: _710  and  _712
REMARK  285  A    between atoms: _712  and  _713
REMARK  286  A    between atoms: _712  and  _715
REMARK  287  A    between atoms: _715  and  _716
REMARK  288  A    between atoms: _716  and  _717
REMARK  289  A    between atoms: _720  and  _722
REMARK  290  A    between atoms: _722  and  _723
REMARK  291  A    between atoms: _726  and  _728
REMARK  292  A    between atoms: _728  and  _729
REMARK  293  A    between atoms: _732  and  _734
REMARK  294  A    between atoms: _734  and  _735
REMARK  295  A    between atoms: _734  and  _737
REMARK  296  A    between atoms: _737  and  _738
REMARK  297  A    between atoms: _738  and  _739
REMARK  298  A    between atoms: _739  and  _740
REMARK  299  A    between atoms: _749  and  _751
REMARK  300  A    between atoms: _751  and  _752
REMARK  301  A    between atoms: _751  and  _754
REMARK  302  A    between atoms: _754  and  _755
REMARK  303  A    between atoms: _755  and  _756
REMARK  304  A    between atoms: _759  and  _761
REMARK  305  A    between atoms: _761  and  _762
REMARK  306  A    between atoms: _765  and  _767
REMARK  307  A    between atoms: _767  and  _768
REMARK  308  A    between atoms: _767  and  _770
REMARK  309  A    between atoms: _770  and  _771
REMARK  310  A    between atoms: _771  and  _772
REMARK  311  A    between atoms: _775  and  _777
REMARK  312  A    between atoms: _777  and  _778
REMARK  313  A    between atoms: _777  and  _780
REMARK  314  A    between atoms: _780  and  _781
REMARK  315  A    between atoms: _781  and  _782
REMARK  316  A    between atoms: _787  and  _789
REMARK  317  A    between atoms: _789  and  _790
REMARK  318  A    between atoms: _789  and  _792
REMARK  319  A    between atoms: _792  and  _793
REMARK  320  A    between atoms: _803  and  _805
REMARK  321  A    between atoms: _805  and  _806
REMARK  322  A    between atoms: _805  and  _808
REMARK  323  A    between atoms: _808  and  _809
REMARK  324  A    between atoms: _809  and  _810
REMARK  325  A    between atoms: _810  and  _811
REMARK  326  A    between atoms: _820  and  _822
REMARK  327  A    between atoms: _822  and  _823
REMARK  328  A    between atoms: _826  and  _828
REMARK  329  A    between atoms: _828  and  _829
REMARK  330  A    between atoms: _828  and  _831
REMARK  331  A    between atoms: _831  and  _832
REMARK  332  A    between atoms: _837  and  _838
REMARK  333  A    between atoms: _840  and  _842
REMARK  334  A    between atoms: _842  and  _843
REMARK  335  A    between atoms: _842  and  _845
REMARK  336  A    between atoms: _845  and  _846
REMARK  337  A    between atoms: _849  and  _851
REMARK  338  A    between atoms: _851  and  _852
REMARK  339  A    between atoms: _854  and  _856
REMARK  340  A    between atoms: _856  and  _857
REMARK  341  A    between atoms: _856  and  _859
REMARK  342  A    between atoms: _859  and  _860
REMARK  343  A    between atoms: _863  and  _865
REMARK  344  A    between atoms: _865  and  _866
REMARK  345  A    between atoms: _865  and  _868
REMARK  346  A    between atoms: _868  and  _869
REMARK  347  A    between atoms: _870  and  _872
REMARK  348  A    between atoms: _872  and  _873
REMARK  349  A    between atoms: _872  and  _875
REMARK  350  A    between atoms: _878  and  _880
REMARK  351  A    between atoms: _880  and  _881
REMARK  352  A    between atoms: _880  and  _883
REMARK  353  A    between atoms: _883  and  _884
REMARK  354  A    between atoms: _884  and  _885
REMARK  355  A    between atoms: _888  and  _890
REMARK  356  A    between atoms: _890  and  _891
REMARK  357  A    between atoms: _890  and  _893
REMARK  358  A    between atoms: _893  and  _894
REMARK  359  A    between atoms: _904  and  _906
REMARK  360  A    between atoms: _906  and  _907
REMARK  361  A    between atoms: _906  and  _909
REMARK  362  A    between atoms: _909  and  _910
REMARK  363  A    between atoms: _913  and  _915
REMARK  364  A    between atoms: _915  and  _916
REMARK  365  A    between atoms: _915  and  _918
REMARK  366  A    between atoms: _918  and  _919
REMARK  367  A    between atoms: _919  and  _920
REMARK  368  A    between atoms: _920  and  _921
REMARK  369  A    between atoms: _930  and  _932
REMARK  370  A    between atoms: _932  and  _933
REMARK  371  A    between atoms: _932  and  _935
REMARK  372  A    between atoms: _935  and  _936
REMARK  373  A    between atoms: _941  and  _942
REMARK  374  A    between atoms: _944  and  _946
REMARK  375  A    between atoms: _946  and  _947
REMARK  376  A    between atoms: _946  and  _949
REMARK  377  A    between atoms: _949  and  _950
REMARK                            x       y       z     vdW  Elec       q    Type
REMARK                         _______ _______ _______ _____ _____    ______ ____
ROOT
ATOM      1  C   TYR A   1      31.510  23.409  22.135  0.00  0.00    +0.239 C 
ATOM      2  N   ILE A   2      30.528  23.188  23.006  0.00  0.00    -0.297 N 
ATOM      3  H   ILE A   2      29.749  23.874  23.079  0.00  0.00    +0.150 HD
ATOM      4  O   TYR A   1      32.485  22.661  22.020  0.00  0.00    -0.274 OA
ENDROOT
BRANCH   1   5
ATOM      5  CA  TYR A   1      31.369  24.662  21.250  0.00  0.00    +0.149 C 
BRANCH   5   6
ATOM      6  N   TYR A   1      30.177  24.590  20.433  0.00  0.00    -0.238 NA
ATOM      7  H   TYR A   1      29.249  24.537  20.900  0.00  0.00    +0.142 HD
ENDBRANCH   5   6
BRANCH   5   8
ATOM      8  CB  TYR A   1      31.340  25.947  22.123  0.00  0.00    +0.053 C 
BRANCH   8   9
ATOM      9  CG  TYR A   1      32.576  26.115  22.974  0.00  0.00    -0.020 A 
ATOM     10  CD2 TYR A   1      32.548  25.854  24.353  0.00  0.00    -0.001 A 
ATOM     11  CE2 TYR A   1      33.716  26.015  25.138  0.00  0.00    +0.036 A 
ATOM     12  CZ  TYR A   1      34.885  26.420  24.528  0.00  0.00    +0.134 A 
ATOM     13  CE1 TYR A   1      34.945  26.686  23.180  0.00  0.00    +0.036 A 
ATOM     14  CD1 TYR A   1      33.777  26.538  22.399  0.00  0.00    -0.001 A 
BRANCH  12  15
ATOM     15  OH  TYR A   1      36.035  26.599  25.268  0.00  0.00    -0.506 OA
ATOM     16  HH  TYR A   1      36.281  25.745  25.705  0.00  0.00    +0.292 HD
ENDBRANCH  12  15
ENDBRANCH   8   9
ENDBRANCH   5   8
ENDBRANCH   1   5
BRANCH   2  17
ATOM     17  CA  ILE A   2      30.519  21.990  23.872  0.00  0.00    +0.148 C 
BRANCH  17  18
ATOM     18  C   ILE A   2      29.093  21.576  24.127  0.00  0.00    +0.241 C 
ATOM     19  N   ALA A   3      28.864  20.269  24.261  0.00  0.00    -0.298 N 
ATOM     20  H   ALA A   3      29.652  19.595  24.182  0.00  0.00    +0.150 HD
ATOM     21  O   ILE A   2      28.195  22.426  24.179  0.00  0.00    -0.273 OA
BRANCH  19  22
ATOM     22  CA  ALA A   3      27.511  19.780  24.518  0.00  0.00    +0.137 C 
ATOM     23  CB  ALA A   3      26.840  19.274  23.232  0.00  0.00    +0.030 C 
BRANCH  22  24
ATOM     24  C   ALA A   3      27.573  18.654  25.511  0.00  0.00    +0.227 C 
ATOM     25  O   ALA A   3      28.465  17.787  25.429  0.00  0.00    -0.286 OA
ENDBRANCH  22  24
ENDBRANCH  19  22
ENDBRANCH  17  18
BRANCH  17  26
ATOM     26  CB  ILE A   2      31.286  22.232  25.217  0.00  0.00    +0.027 C 
ATOM     27  CG2 ILE A   2      30.470  23.109  26.242  0.00  0.00    +0.002 C 
BRANCH  26  28
ATOM     28  CG1 ILE A   2      31.678  20.894  25.878  0.00  0.00    +0.002 C 
ATOM     29  CD1 ILE A   2      32.564  21.121  27.121  0.00  0.00    +0.000 C 
ENDBRANCH  26  28
ENDBRANCH  17  26
ENDBRANCH   2  17
TORSDOF 11
REMARK  Name = ../refined-set-2016/1xr9/1xr9_pocket.pdb
REMARK  377 active torsions:
REMARK  status: ('A' for Active; 'I' for Inactive)
REMARK    1  A    between atoms: _1  and  _3
REMARK    2  A    between atoms: _3  and  _4
REMARK    3  A    between atoms: _3  and  _6
REMARK    4  A    between atoms: _6  and  _7
REMARK    5  A    between atoms: _7  and  _8
REMARK    6  A    between atoms: _10  and  _12
REMARK    7  A    between atoms: _12  and  _13
REMARK    8  A    between atoms: _12  and  _15
REMARK    9  A    between atoms: _15  and  _16
REMARK   10  A    between atoms: _16  and  _17
REMARK   11  A    between atoms: _17  and  _18
REMARK   12  A    between atoms: _27  and  _29
REMARK   13  A    between atoms: _29  and  _30
REMARK   14  A    between atoms: _29  and  _32
REMARK   15  A    between atoms: _32  and  _33
REMARK   16  A    between atoms: _38  and  _39
REMARK   17  A    between atoms: _41  and  _43
REMARK   18  A    between atoms: _43  and  _44
REMARK   19  A    between atoms: _43  and  _46
REMARK   20  A    between atoms: _46  and  _47
REMARK   21  A    between atoms: _53  and  _55
REMARK   22  A    between atoms: _55  and  _56
REMARK   23  A    between atoms: _55  and  _58
REMARK   24  A    between atoms: _58  and  _59
REMARK   25  A    between atoms: _64  and  _65
REMARK   26  A    between atoms: _67  and  _69
REMARK   27  A    between atoms: _69  and  _70
REMARK   28  A    between atoms: _69  and  _72
REMARK   29  A    between atoms: _72  and  _73
REMARK   30  A    between atoms: _79  and  _81
REMARK   31  A    between atoms: _81  and  _82
REMARK   32  A    between atoms: _85  and  _87
REMARK   33  A    between atoms: _87  and  _88
REMARK   34  A    between atoms: _87  and  _90
REMARK   35  A    between atoms: _93  and  _95
REMARK   36  A    between atoms: _95  and  _96
REMARK   37  A    between atoms: _98  and  _100
REMARK   38  A    between atoms: _100  and  _101
REMARK   39  A    between atoms: _100  and  _103
REMARK   40  A    between atoms: _106  and  _108
REMARK   41  A    between atoms: _108  and  _109
REMARK   42  A    between atoms: _108  and  _111
REMARK   43  A    between atoms: _111  and  _112
REMARK   44  A    between atoms: _118  and  _120
REMARK   45  A    between atoms: _120  and  _121
REMARK   46  A    between atoms: _120  and  _123
REMARK   47  A    between atoms: _126  and  _128
REMARK   48  A    between atoms: _128  and  _129
REMARK   49  A    between atoms: _128  and  _131
REMARK   50  A    between atoms: _131  and  _132
REMARK   51  A    between atoms: _138  and  _140
REMARK   52  A    between atoms: _140  and  _141
REMARK   53  A    between atoms: _140  and  _143
REMARK   54  A    between atoms: _143  and  _144
REMARK   55  A    between atoms: _144  and  _145
REMARK   56  A    between atoms: _147  and  _149
REMARK   57  A    between atoms: _149  and  _150
REMARK   58  A    between atoms: _149  and  _152
REMARK   59  A    between atoms: _152  and  _153
REMARK   60  A    between atoms: _156  and  _158
REMARK   61  A    between atoms: _158  and  _159
REMARK   62  A    between atoms: _158  and  _161
REMARK   63  A    between atoms: _161  and  _162
REMARK   64  A    between atoms: _162  and  _163
REMARK   65  A    between atoms: _166  and  _168
REMARK   66  A    between atoms: _168  and  _169
REMARK   67  A    between atoms: _168  and  _171
REMARK   68  A    between atoms: _171  and  _172
REMARK   69  A    between atoms: _172  and  _173
REMARK   70  A    between atoms: _176  and  _178
REMARK   71  A    between atoms: _178  and  _179
REMARK   72  A    between atoms: _178  and  _181
REMARK   73  A    between atoms: _181  and  _182
REMARK   74  A    between atoms: _187  and  _188
REMARK   75  A    between atoms: _190  and  _192
REMARK   76  A    between atoms: _192  and  _193
REMARK   77  A    between atoms: _192  and  _195
REMARK   78  A    between atoms: _195  and  _196
REMARK   79  A    between atoms: _206  and  _208
REMARK   80  A    between atoms: _208  and  _209
REMARK   81  A    between atoms: _208  and  _211
REMARK   82  A    between atoms: _211  and  _212
REMARK   83  A    between atoms: _215  and  _217
REMARK   84  A    between atoms: _217  and  _218
REMARK   85  A    between atoms: _217  and  _220
REMARK   86  A    between atoms: _220  and  _221
REMARK   87  A    between atoms: _221  and  _222
REMARK   88  A    between atoms: _222  and  _223
REMARK   89  A    between atoms: _232  and  _234
REMARK   90  A    between atoms: _234  and  _235
REMARK   91  A    between atoms: _234  and  _237
REMARK   92  A    between atoms: _237  and  _238
REMARK   93  A    between atoms: _238  and  _239
REMARK   94  A    between atoms: _242  and  _244
REMARK   95  A    between atoms: _244  and  _245
REMARK   96  A    between atoms: _244  and  _247
REMARK   97  A    between atoms: _247  and  _248
REMARK   98  A    between atoms: _251  and  _253
REMARK   99  A    between atoms: _253  and  _254
REMARK  100  A    between atoms: _253  and  _256
REMARK  101  A    between atoms: _256  and  _257
REMARK  102  A    between atoms: _257  and  _258
REMARK  103  A    between atoms: _263  and  _265
REMARK  104  A    between atoms: _265  and  _266
REMARK  105  A    between atoms: _265  and  _268
REMARK  106  A    between atoms: _268  and  _269
REMARK  107  A    between atoms: _272  and  _274
REMARK  108  A    between atoms: _274  and  _275
REMARK  109  A    between atoms: _274  and  _277
REMARK  110  A    between atoms: _277  and  _278
REMARK  111  A    between atoms: _280  and  _282
REMARK  112  A    between atoms: _282  and  _283
REMARK  113  A    between atoms: _282  and  _285
REMARK  114  A    between atoms: _285  and  _286
REMARK  115  A    between atoms: _286  and  _287
REMARK  116  A    between atoms: _287  and  _288
REMARK  117  A    between atoms: _288  and  _289
REMARK  118  A    between atoms: _293  and  _295
REMARK  119  A    between atoms: _295  and  _296
REMARK  120  A    between atoms: _295  and  _298
REMARK  121  A    between atoms: _298  and  _299
REMARK  122  A    between atoms: _302  and  _304
REMARK  123  A    between atoms: _304  and  _305
REMARK  124  A    between atoms: _304  and  _307
REMARK  125  A    between atoms: _307  and  _308
REMARK  126  A    between atoms: _313  and  _315
REMARK  127  A    between atoms: _315  and  _316
REMARK  128  A    between atoms: _315  and  _318
REMARK  129  A    between atoms: _318  and  _319
REMARK  130  A    between atoms: _319  and  _320
REMARK  131  A    between atoms: _325  and  _327
REMARK  132  A    between atoms: _327  and  _328
REMARK  133  A    between atoms: _327  and  _330
REMARK  134  A    between atoms: _330  and  _331
REMARK  135  A    between atoms: _334  and  _336
REMARK  136  A    between atoms: _336  and  _337
REMARK  137  A    between atoms: _336  and  _339
REMARK  138  A    between atoms: _339  and  _340
REMARK  139  A    between atoms: _345  and  _346
REMARK  140  A    between atoms: _348  and  _350
REMARK  141  A    between atoms: _350  and  _351
REMARK  142  A    between atoms: _350  and  _353
REMARK  143  A    between atoms: _353  and  _354
REMARK  144  A    between atoms: _354  and  _355
REMARK  145  A    between atoms: _355  and  _356
REMARK  146  A    between atoms: _365  and  _367
REMARK  147  A    between atoms: _367  and  _368
REMARK  148  A    between atoms: _367  and  _370
REMARK  149  A    between atoms: _370  and  _371
REMARK  150  A    between atoms: _371  and  _372
REMARK  151  A    between atoms: _375  and  _377
REMARK  152  A    between atoms: _377  and  _378
REMARK  153  A    between atoms: _377  and  _380
REMARK  154  A    between atoms: _380  and  _381
REMARK  155  A    between atoms: _383  and  _385
REMARK  156  A    between atoms: _385  and  _386
REMARK  157  A    between atoms: _385  and  _388
REMARK  158  A    between atoms: _388  and  _389
REMARK  159  A    between atoms: _392  and  _394
REMARK  160  A    between atoms: _394  and  _395
REMARK  161  A    between atoms: _394  and  _397
REMARK  162  A    between atoms: _397  and  _398
REMARK  163  A    between atoms: _398  and  _399
REMARK  164  A    between atoms: _399  and  _400
REMARK  165  A    between atoms: _409  and  _411
REMARK  166  A    between atoms: _411  and  _412
REMARK  167  A    between atoms: _411  and  _414
REMARK  168  A    between atoms: _414  and  _415
REMARK  169  A    between atoms: _420  and  _422
REMARK  170  A    between atoms: _422  and  _423
REMARK  171  A    between atoms: _422  and  _425
REMARK  172  A    between atoms: _425  and  _426
REMARK  173  A    between atoms: _429  and  _431
REMARK  174  A    between atoms: _431  and  _432
REMARK  175  A    between atoms: _431  and  _434
REMARK  176  A    between atoms: _434  and  _435
REMARK  177  A    between atoms: _440  and  _441
REMARK  178  A    between atoms: _443  and  _445
REMARK  179  A    between atoms: _445  and  _446
REMARK  180  A    between atoms: _445  and  _448
REMARK  181  A    between atoms: _448  and  _449
REMARK  182  A    between atoms: _452  and  _454
REMARK  183  A    between atoms: _454  and  _455
REMARK  184  A    between atoms: _454  and  _457
REMARK  185  A    between atoms: _457  and  _458
REMARK  186  A    between atoms: _458  and  _459
REMARK  187  A    between atoms: _464  and  _466
REMARK  188  A    between atoms: _466  and  _467
REMARK  189  A    between atoms: _466  and  _469
REMARK  190  A    between atoms: _469  and  _470
REMARK  191  A    between atoms: _470  and  _471
REMARK  192  A    between atoms: _471  and  _472
REMARK  193  A    between atoms: _481  and  _483
REMARK  194  A    between atoms: _483  and  _484
REMARK  195  A    between atoms: _483  and  _486
REMARK  196  A    between atoms: _486  and  _487
REMARK  197  A    between atoms: _487  and  _488
REMARK  198  A    between atoms: _490  and  _492
REMARK  199  A    between atoms: _492  and  _493
REMARK  200  A    between atoms: _492  and  _495
REMARK  201  A    between atoms: _495  and  _496
REMARK  202  A    between atoms: _501  and  _502
REMARK  203  A    between atoms: _504  and  _506
REMARK  204  A    between atoms: _506  and  _507
REMARK  205  A    between atoms: _509  and  _511
REMARK  206  A    between atoms: _511  and  _512
REMARK  207  A    between atoms: _511  and  _514
REMARK  208  A    between atoms: _514  and  _515
REMARK  209  A    between atoms: _515  and  _869
REMARK  210  A    between atoms: _516  and  _518
REMARK  211  A    between atoms: _518  and  _519
REMARK  212  A    between atoms: _518  and  _521
REMARK  213  A    between atoms: _521  and  _522
REMARK  214  A    between atoms: _525  and  _527
REMARK  215  A    between atoms: _527  and  _528
REMARK  216  A    between atoms: _527  and  _530
REMARK  217  A    between atoms: _530  and  _531
REMARK  218  A    between atoms: _531  and  _532
REMARK  219  A    between atoms: _537  and  _539
REMARK  220  A    between atoms: _539  and  _540
REMARK  221  A    between atoms: _539  and  _542
REMARK  222  A    between atoms: _542  and  _543
REMARK  223  A    between atoms: _545  and  _547
REMARK  224  A    between atoms: _547  and  _548
REMARK  225  A    between atoms: _551  and  _553
REMARK  226  A    between atoms: _553  and  _554
REMARK  227  A    between atoms: _553  and  _556
REMARK  228  A    between atoms: _556  and  _557
REMARK  229  A    between atoms: _562  and  _563
REMARK  230  A    between atoms: _565  and  _567
REMARK  231  A    between atoms: _567  and  _568
REMARK  232  A    between atoms: _567  and  _570
REMARK  233  A    between atoms: _570  and  _571
REMARK  234  A    between atoms: _576  and  _577
REMARK  235  A    between atoms: _579  and  _581
REMARK  236  A    between atoms: _581  and  _582
REMARK  237  A    between atoms: _581  and  _584
REMARK  238  A    between atoms: _584  and  _585
REMARK  239  A    between atoms: _588  and  _590
REMARK  240  A    between atoms: _590  and  _591
REMARK  241  A    between atoms: _594  and  _596
REMARK  242  A    between atoms: _596  and  _597
REMARK  243  A    between atoms: _596  and  _599
REMARK  244  A    between atoms: _599  and  _600
REMARK  245  A    between atoms: _610  and  _612
REMARK  246  A    between atoms: _612  and  _613
REMARK  247  A    between atoms: _616  and  _618
REMARK  248  A    between atoms: _618  and  _619
REMARK  249  A    between atoms: _622  and  _624
REMARK  250  A    between atoms: _624  and  _625
REMARK  251  A    between atoms: _624  and  _627
REMARK  252  A    between atoms: _627  and  _628
REMARK  253  A    between atoms: _628  and  _629
REMARK  254  A    between atoms: _634  and  _636
REMARK  255  A    between atoms: _636  and  _637
REMARK  256  A    between atoms: _636  and  _639
REMARK  257  A    between atoms: _639  and  _640
REMARK  258  A    between atoms: _643  and  _645
REMARK  259  A    between atoms: _645  and  _646
REMARK  260  A    between atoms: _645  and  _648
REMARK  261  A    between atoms: _648  and  _649
REMARK  262  A    between atoms: _652  and  _654
REMARK  263  A    between atoms: _654  and  _655
REMARK  264  A    between atoms: _654  and  _657
REMARK  265  A    between atoms: _657  and  _658
REMARK  266  A    between atoms: _658  and  _659
REMARK  267  A    between atoms: _664  and  _666
REMARK  268  A    between atoms: _666  and  _667
REMARK  269  A    between atoms: _666  and  _669
REMARK  270  A    between atoms: _669  and  _670
REMARK  271  A    between atoms: _670  and  _671
REMARK  272  A    between atoms: _671  and  _672
REMARK  273  A    between atoms: _681  and  _683
REMARK  274  A    between atoms: _683  and  _684
REMARK  275  A    between atoms: _683  and  _686
REMARK  276  A    between atoms: _686  and  _687
REMARK  277  A    between atoms: _687  and  _688
REMARK  278  A    between atoms: _688  and  _689
REMARK  279  A    between atoms: _689  and  _690
REMARK  280  A    between atoms: _694  and  _696
REMARK  281  A    between atoms: _696  and  _697
REMARK  282  A    between atoms: _696  and  _699
REMARK  283  A    between atoms: _699  and  _700
REMARK  284  A    between atoms: _710  and  _712
REMARK  285  A    between atoms: _712  and  _713
REMARK  286  A    between atoms: _712  and  _715
REMARK  287  A    between atoms: _715  and  _716
REMARK  288  A    between atoms: _716  and  _717
REMARK  289  A    between atoms: _720  and  _722
REMARK  290  A    between atoms: _722  and  _723
REMARK  291  A    between atoms: _726  and  _728
REMARK  292  A    between atoms: _728  and  _729
REMARK  293  A    between atoms: _732  and  _734
REMARK  294  A    between atoms: _734  and  _735
REMARK  295  A    between atoms: _734  and  _737
REMARK  296  A    between atoms: _737  and  _738
REMARK  297  A    between atoms: _738  and  _739
REMARK  298  A    between atoms: _739  and  _740
REMARK  299  A    between atoms: _749  and  _751
REMARK  300  A    between atoms: _751  and  _752
REMARK  301  A    between atoms: _751  and  _754
REMARK  302  A    between atoms: _754  and  _755
REMARK  303  A    between atoms: _755  and  _756
REMARK  304  A    between atoms: _759  and  _761
REMARK  305  A    between atoms: _761  and  _762
REMARK  306  A    between atoms: _765  and  _767
REMARK  307  A    between atoms: _767  and  _768
REMARK  308  A    between atoms: _767  and  _770
REMARK  309  A    between atoms: _770  and  _771
REMARK  310  A    between atoms: _771  and  _772
REMARK  311  A    between atoms: _775  and  _777
REMARK  312  A    between atoms: _777  and  _778
REMARK  313  A    between atoms: _777  and  _780
REMARK  314  A    between atoms: _780  and  _781
REMARK  315  A    between atoms: _781  and  _782
REMARK  316  A    between atoms: _787  and  _789
REMARK  317  A    between atoms: _789  and  _790
REMARK  318  A    between atoms: _789  and  _792
REMARK  319  A    between atoms: _792  and  _793
REMARK  320  A    between atoms: _803  and  _805
REMARK  321  A    between atoms: _805  and  _806
REMARK  322  A    between atoms: _805  and  _808
REMARK  323  A    between atoms: _808  and  _809
REMARK  324  A    between atoms: _809  and  _810
REMARK  325  A    between atoms: _810  and  _811
REMARK  326  A    between atoms: _820  and  _822
REMARK  327  A    between atoms: _822  and  _823
REMARK  328  A    between atoms: _826  and  _828
REMARK  329  A    between atoms: _828  and  _829
REMARK  330  A    between atoms: _828  and  _831
REMARK  331  A    between atoms: _831  and  _832
REMARK  332  A    between atoms: _837  and  _838
REMARK  333  A    between atoms: _840  and  _842
REMARK  334  A    between atoms: _842  and  _843
REMARK  335  A    between atoms: _842  and  _845
REMARK  336  A    between atoms: _845  and  _846
REMARK  337  A    between atoms: _849  and  _851
REMARK  338  A    between atoms: _851  and  _852
REMARK  339  A    between atoms: _854  and  _856
REMARK  340  A    between atoms: _856  and  _857
REMARK  341  A    between atoms: _856  and  _859
REMARK  342  A    between atoms: _859  and  _860
REMARK  343  A    between atoms: _863  and  _865
REMARK  344  A    between atoms: _865  and  _866
REMARK  345  A    between atoms: _865  and  _868
REMARK  346  A    between atoms: _868  and  _869
REMARK  347  A    between atoms: _870  and  _872
REMARK  348  A    between atoms: _872  and  _873
REMARK  349  A    between atoms: _872  and  _875
REMARK  350  A    between atoms: _878  and  _880
REMARK  351  A    between atoms: _880  and  _881
REMARK  352  A    between atoms: _880  and  _883
REMARK  353  A    between atoms: _883  and  _884
REMARK  354  A    between atoms: _884  and  _885
REMARK  355  A    between atoms: _888  and  _890
REMARK  356  A    between atoms: _890  and  _891
REMARK  357  A    between atoms: _890  and  _893
REMARK  358  A    between atoms: _893  and  _894
REMARK  359  A    between atoms: _904  and  _906
REMARK  360  A    between atoms: _906  and  _907
REMARK  361  A    between atoms: _906  and  _909
REMARK  362  A    between atoms: _909  and  _910
REMARK  363  A    between atoms: _913  and  _915
REMARK  364  A    between atoms: _915  and  _916
REMARK  365  A    between atoms: _915  and  _918
REMARK  366  A    between atoms: _918  and  _919
REMARK  367  A    between atoms: _919  and  _920
REMARK  368  A    between atoms: _920  and  _921
REMARK  369  A    between atoms: _930  and  _932
REMARK  370  A    between atoms: _932  and  _933
REMARK  371  A    between atoms: _932  and  _935
REMARK  372  A    between atoms: _935  and  _936
REMARK  373  A    between atoms: _941  and  _942
REMARK  374  A    between atoms: _944  and  _946
REMARK  375  A    between atoms: _946  and  _947
REMARK  376  A    between atoms: _946  and  _949
REMARK  377  A    between atoms: _949  and  _950
REMARK                            x       y       z     vdW  Elec       q    Type
REMARK                         _______ _______ _______ _____ _____    ______ ____
ROOT
ATOM      1  CG  TRP A   1      31.186  17.449  28.959  0.00  0.00    -0.002 A 
ATOM      2  CD1 TRP A   1      31.806  17.015  30.098  0.00  0.00    +0.068 A 
ATOM      3  NE1 TRP A   1      31.179  17.538  31.203  0.00  0.00    -0.352 N 
ATOM      4  HE1 TRP A   1      31.435  17.354  32.194  0.00  0.00    +0.166 HD
ATOM      5  CE2 TRP A   1      30.154  18.347  30.771  0.00  0.00    +0.056 A 
ATOM      6  CZ2 TRP A   1      29.247  19.082  31.489  0.00  0.00    +0.017 A 
ATOM      7  CH2 TRP A   1      28.303  19.793  30.792  0.00  0.00    +0.001 A 
ATOM      8  CZ3 TRP A   1      28.286  19.810  29.394  0.00  0.00    +0.000 A 
ATOM      9  CE3 TRP A   1      29.181  19.059  28.667  0.00  0.00    +0.001 A 
ATOM     10  CD2 TRP A   1      30.136  18.293  29.359  0.00  0.00    +0.013 A 
ENDROOT
BRANCH   1  11
ATOM     11  CB  TRP A   1      31.543  17.114  27.579  0.00  0.00    +0.053 C 
BRANCH  11  12
ATOM     12  CA  TRP A   1      30.723  15.962  27.020  0.00  0.00    +0.137 C 
BRANCH  12  13
ATOM     13  N   TRP A   1      30.820  14.811  27.919  0.00  0.00    -0.239 NA
ATOM     14  H   TRP A   1      31.758  14.419  28.138  0.00  0.00    +0.142 HD
ENDBRANCH  12  13
BRANCH  12  15
ATOM     15  C   TRP A   1      31.292  15.668  25.661  0.00  0.00    +0.224 C 
ATOM     16  O   TRP A   1      32.224  14.858  25.545  0.00  0.00    -0.287 OA
ENDBRANCH  12  15
ENDBRANCH  11  12
ENDBRANCH   1  11
TORSDOF 4
REMARK  Name = ../refined-set-2016/1xr9/1xr9_pocket.pdb
REMARK  377 active torsions:
REMARK  status: ('A' for Active; 'I' for Inactive)
REMARK    1  A    between atoms: _1  and  _3
REMARK    2  A    between atoms: _3  and  _4
REMARK    3  A    between atoms: _3  and  _6
REMARK    4  A    between atoms: _6  and  _7
REMARK    5  A    between atoms: _7  and  _8
REMARK    6  A    between atoms: _10  and  _12
REMARK    7  A    between atoms: _12  and  _13
REMARK    8  A    between atoms: _12  and  _15
REMARK    9  A    between atoms: _15  and  _16
REMARK   10  A    between atoms: _16  and  _17
REMARK   11  A    between atoms: _17  and  _18
REMARK   12  A    between atoms: _27  and  _29
REMARK   13  A    between atoms: _29  and  _30
REMARK   14  A    between atoms: _29  and  _32
REMARK   15  A    between atoms: _32  and  _33
REMARK   16  A    between atoms: _38  and  _39
REMARK   17  A    between atoms: _41  and  _43
REMARK   18  A    between atoms: _43  and  _44
REMARK   19  A    between atoms: _43  and  _46
REMARK   20  A    between atoms: _46  and  _47
REMARK   21  A    between atoms: _53  and  _55
REMARK   22  A    between atoms: _55  and  _56
REMARK   23  A    between atoms: _55  and  _58
REMARK   24  A    between atoms: _58  and  _59
REMARK   25  A    between atoms: _64  and  _65
REMARK   26  A    between atoms: _67  and  _69
REMARK   27  A    between atoms: _69  and  _70
REMARK   28  A    between atoms: _69  and  _72
REMARK   29  A    between atoms: _72  and  _73
REMARK   30  A    between atoms: _79  and  _81
REMARK   31  A    between atoms: _81  and  _82
REMARK   32  A    between atoms: _85  and  _87
REMARK   33  A    between atoms: _87  and  _88
REMARK   34  A    between atoms: _87  and  _90
REMARK   35  A    between atoms: _93  and  _95
REMARK   36  A    between atoms: _95  and  _96
REMARK   37  A    between atoms: _98  and  _100
REMARK   38  A    between atoms: _100  and  _101
REMARK   39  A    between atoms: _100  and  _103
REMARK   40  A    between atoms: _106  and  _108
REMARK   41  A    between atoms: _108  and  _109
REMARK   42  A    between atoms: _108  and  _111
REMARK   43  A    between atoms: _111  and  _112
REMARK   44  A    between atoms: _118  and  _120
REMARK   45  A    between atoms: _120  and  _121
REMARK   46  A    between atoms: _120  and  _123
REMARK   47  A    between atoms: _126  and  _128
REMARK   48  A    between atoms: _128  and  _129
REMARK   49  A    between atoms: _128  and  _131
REMARK   50  A    between atoms: _131  and  _132
REMARK   51  A    between atoms: _138  and  _140
REMARK   52  A    between atoms: _140  and  _141
REMARK   53  A    between atoms: _140  and  _143
REMARK   54  A    between atoms: _143  and  _144
REMARK   55  A    between atoms: _144  and  _145
REMARK   56  A    between atoms: _147  and  _149
REMARK   57  A    between atoms: _149  and  _150
REMARK   58  A    between atoms: _149  and  _152
REMARK   59  A    between atoms: _152  and  _153
REMARK   60  A    between atoms: _156  and  _158
REMARK   61  A    between atoms: _158  and  _159
REMARK   62  A    between atoms: _158  and  _161
REMARK   63  A    between atoms: _161  and  _162
REMARK   64  A    between atoms: _162  and  _163
REMARK   65  A    between atoms: _166  and  _168
REMARK   66  A    between atoms: _168  and  _169
REMARK   67  A    between atoms: _168  and  _171
REMARK   68  A    between atoms: _171  and  _172
REMARK   69  A    between atoms: _172  and  _173
REMARK   70  A    between atoms: _176  and  _178
REMARK   71  A    between atoms: _178  and  _179
REMARK   72  A    between atoms: _178  and  _181
REMARK   73  A    between atoms: _181  and  _182
REMARK   74  A    between atoms: _187  and  _188
REMARK   75  A    between atoms: _190  and  _192
REMARK   76  A    between atoms: _192  and  _193
REMARK   77  A    between atoms: _192  and  _195
REMARK   78  A    between atoms: _195  and  _196
REMARK   79  A    between atoms: _206  and  _208
REMARK   80  A    between atoms: _208  and  _209
REMARK   81  A    between atoms: _208  and  _211
REMARK   82  A    between atoms: _211  and  _212
REMARK   83  A    between atoms: _215  and  _217
REMARK   84  A    between atoms: _217  and  _218
REMARK   85  A    between atoms: _217  and  _220
REMARK   86  A    between atoms: _220  and  _221
REMARK   87  A    between atoms: _221  and  _222
REMARK   88  A    between atoms: _222  and  _223
REMARK   89  A    between atoms: _232  and  _234
REMARK   90  A    between atoms: _234  and  _235
REMARK   91  A    between atoms: _234  and  _237
REMARK   92  A    between atoms: _237  and  _238
REMARK   93  A    between atoms: _238  and  _239
REMARK   94  A    between atoms: _242  and  _244
REMARK   95  A    between atoms: _244  and  _245
REMARK   96  A    between atoms: _244  and  _247
REMARK   97  A    between atoms: _247  and  _248
REMARK   98  A    between atoms: _251  and  _253
REMARK   99  A    between atoms: _253  and  _254
REMARK  100  A    between atoms: _253  and  _256
REMARK  101  A    between atoms: _256  and  _257
REMARK  102  A    between atoms: _257  and  _258
REMARK  103  A    between atoms: _263  and  _265
REMARK  104  A    between atoms: _265  and  _266
REMARK  105  A    between atoms: _265  and  _268
REMARK  106  A    between atoms: _268  and  _269
REMARK  107  A    between atoms: _272  and  _274
REMARK  108  A    between atoms: _274  and  _275
REMARK  109  A    between atoms: _274  and  _277
REMARK  110  A    between atoms: _277  and  _278
REMARK  111  A    between atoms: _280  and  _282
REMARK  112  A    between atoms: _282  and  _283
REMARK  113  A    between atoms: _282  and  _285
REMARK  114  A    between atoms: _285  and  _286
REMARK  115  A    between atoms: _286  and  _287
REMARK  116  A    between atoms: _287  and  _288
REMARK  117  A    between atoms: _288  and  _289
REMARK  118  A    between atoms: _293  and  _295
REMARK  119  A    between atoms: _295  and  _296
REMARK  120  A    between atoms: _295  and  _298
REMARK  121  A    between atoms: _298  and  _299
REMARK  122  A    between atoms: _302  and  _304
REMARK  123  A    between atoms: _304  and  _305
REMARK  124  A    between atoms: _304  and  _307
REMARK  125  A    between atoms: _307  and  _308
REMARK  126  A    between atoms: _313  and  _315
REMARK  127  A    between atoms: _315  and  _316
REMARK  128  A    between atoms: _315  and  _318
REMARK  129  A    between atoms: _318  and  _319
REMARK  130  A    between atoms: _319  and  _320
REMARK  131  A    between atoms: _325  and  _327
REMARK  132  A    between atoms: _327  and  _328
REMARK  133  A    between atoms: _327  and  _330
REMARK  134  A    between atoms: _330  and  _331
REMARK  135  A    between atoms: _334  and  _336
REMARK  136  A    between atoms: _336  and  _337
REMARK  137  A    between atoms: _336  and  _339
REMARK  138  A    between atoms: _339  and  _340
REMARK  139  A    between atoms: _345  and  _346
REMARK  140  A    between atoms: _348  and  _350
REMARK  141  A    between atoms: _350  and  _351
REMARK  142  A    between atoms: _350  and  _353
REMARK  143  A    between atoms: _353  and  _354
REMARK  144  A    between atoms: _354  and  _355
REMARK  145  A    between atoms: _355  and  _356
REMARK  146  A    between atoms: _365  and  _367
REMARK  147  A    between atoms: _367  and  _368
REMARK  148  A    between atoms: _367  and  _370
REMARK  149  A    between atoms: _370  and  _371
REMARK  150  A    between atoms: _371  and  _372
REMARK  151  A    between atoms: _375  and  _377
REMARK  152  A    between atoms: _377  and  _378
REMARK  153  A    between atoms: _377  and  _380
REMARK  154  A    between atoms: _380  and  _381
REMARK  155  A    between atoms: _383  and  _385
REMARK  156  A    between atoms: _385  and  _386
REMARK  157  A    between atoms: _385  and  _388
REMARK  158  A    between atoms: _388  and  _389
REMARK  159  A    between atoms: _392  and  _394
REMARK  160  A    between atoms: _394  and  _395
REMARK  161  A    between atoms: _394  and  _397
REMARK  162  A    between atoms: _397  and  _398
REMARK  163  A    between atoms: _398  and  _399
REMARK  164  A    between atoms: _399  and  _400
REMARK  165  A    between atoms: _409  and  _411
REMARK  166  A    between atoms: _411  and  _412
REMARK  167  A    between atoms: _411  and  _414
REMARK  168  A    between atoms: _414  and  _415
REMARK  169  A    between atoms: _420  and  _422
REMARK  170  A    between atoms: _422  and  _423
REMARK  171  A    between atoms: _422  and  _425
REMARK  172  A    between atoms: _425  and  _426
REMARK  173  A    between atoms: _429  and  _431
REMARK  174  A    between atoms: _431  and  _432
REMARK  175  A    between atoms: _431  and  _434
REMARK  176  A    between atoms: _434  and  _435
REMARK  177  A    between atoms: _440  and  _441
REMARK  178  A    between atoms: _443  and  _445
REMARK  179  A    between atoms: _445  and  _446
REMARK  180  A    between atoms: _445  and  _448
REMARK  181  A    between atoms: _448  and  _449
REMARK  182  A    between atoms: _452  and  _454
REMARK  183  A    between atoms: _454  and  _455
REMARK  184  A    between atoms: _454  and  _457
REMARK  185  A    between atoms: _457  and  _458
REMARK  186  A    between atoms: _458  and  _459
REMARK  187  A    between atoms: _464  and  _466
REMARK  188  A    between atoms: _466  and  _467
REMARK  189  A    between atoms: _466  and  _469
REMARK  190  A    between atoms: _469  and  _470
REMARK  191  A    between atoms: _470  and  _471
REMARK  192  A    between atoms: _471  and  _472
REMARK  193  A    between atoms: _481  and  _483
REMARK  194  A    between atoms: _483  and  _484
REMARK  195  A    between atoms: _483  and  _486
REMARK  196  A    between atoms: _486  and  _487
REMARK  197  A    between atoms: _487  and  _488
REMARK  198  A    between atoms: _490  and  _492
REMARK  199  A    between atoms: _492  and  _493
REMARK  200  A    between atoms: _492  and  _495
REMARK  201  A    between atoms: _495  and  _496
REMARK  202  A    between atoms: _501  and  _502
REMARK  203  A    between atoms: _504  and  _506
REMARK  204  A    between atoms: _506  and  _507
REMARK  205  A    between atoms: _509  and  _511
REMARK  206  A    between atoms: _511  and  _512
REMARK  207  A    between atoms: _511  and  _514
REMARK  208  A    between atoms: _514  and  _515
REMARK  209  A    between atoms: _515  and  _869
REMARK  210  A    between atoms: _516  and  _518
REMARK  211  A    between atoms: _518  and  _519
REMARK  212  A    between atoms: _518  and  _521
REMARK  213  A    between atoms: _521  and  _522
REMARK  214  A    between atoms: _525  and  _527
REMARK  215  A    between atoms: _527  and  _528
REMARK  216  A    between atoms: _527  and  _530
REMARK  217  A    between atoms: _530  and  _531
REMARK  218  A    between atoms: _531  and  _532
REMARK  219  A    between atoms: _537  and  _539
REMARK  220  A    between atoms: _539  and  _540
REMARK  221  A    between atoms: _539  and  _542
REMARK  222  A    between atoms: _542  and  _543
REMARK  223  A    between atoms: _545  and  _547
REMARK  224  A    between atoms: _547  and  _548
REMARK  225  A    between atoms: _551  and  _553
REMARK  226  A    between atoms: _553  and  _554
REMARK  227  A    between atoms: _553  and  _556
REMARK  228  A    between atoms: _556  and  _557
REMARK  229  A    between atoms: _562  and  _563
REMARK  230  A    between atoms: _565  and  _567
REMARK  231  A    between atoms: _567  and  _568
REMARK  232  A    between atoms: _567  and  _570
REMARK  233  A    between atoms: _570  and  _571
REMARK  234  A    between atoms: _576  and  _577
REMARK  235  A    between atoms: _579  and  _581
REMARK  236  A    between atoms: _581  and  _582
REMARK  237  A    between atoms: _581  and  _584
REMARK  238  A    between atoms: _584  and  _585
REMARK  239  A    between atoms: _588  and  _590
REMARK  240  A    between atoms: _590  and  _591
REMARK  241  A    between atoms: _594  and  _596
REMARK  242  A    between atoms: _596  and  _597
REMARK  243  A    between atoms: _596  and  _599
REMARK  244  A    between atoms: _599  and  _600
REMARK  245  A    between atoms: _610  and  _612
REMARK  246  A    between atoms: _612  and  _613
REMARK  247  A    between atoms: _616  and  _618
REMARK  248  A    between atoms: _618  and  _619
REMARK  249  A    between atoms: _622  and  _624
REMARK  250  A    between atoms: _624  and  _625
REMARK  251  A    between atoms: _624  and  _627
REMARK  252  A    between atoms: _627  and  _628
REMARK  253  A    between atoms: _628  and  _629
REMARK  254  A    between atoms: _634  and  _636
REMARK  255  A    between atoms: _636  and  _637
REMARK  256  A    between atoms: _636  and  _639
REMARK  257  A    between atoms: _639  and  _640
REMARK  258  A    between atoms: _643  and  _645
REMARK  259  A    between atoms: _645  and  _646
REMARK  260  A    between atoms: _645  and  _648
REMARK  261  A    between atoms: _648  and  _649
REMARK  262  A    between atoms: _652  and  _654
REMARK  263  A    between atoms: _654  and  _655
REMARK  264  A    between atoms: _654  and  _657
REMARK  265  A    between atoms: _657  and  _658
REMARK  266  A    between atoms: _658  and  _659
REMARK  267  A    between atoms: _664  and  _666
REMARK  268  A    between atoms: _666  and  _667
REMARK  269  A    between atoms: _666  and  _669
REMARK  270  A    between atoms: _669  and  _670
REMARK  271  A    between atoms: _670  and  _671
REMARK  272  A    between atoms: _671  and  _672
REMARK  273  A    between atoms: _681  and  _683
REMARK  274  A    between atoms: _683  and  _684
REMARK  275  A    between atoms: _683  and  _686
REMARK  276  A    between atoms: _686  and  _687
REMARK  277  A    between atoms: _687  and  _688
REMARK  278  A    between atoms: _688  and  _689
REMARK  279  A    between atoms: _689  and  _690
REMARK  280  A    between atoms: _694  and  _696
REMARK  281  A    between atoms: _696  and  _697
REMARK  282  A    between atoms: _696  and  _699
REMARK  283  A    between atoms: _699  and  _700
REMARK  284  A    between atoms: _710  and  _712
REMARK  285  A    between atoms: _712  and  _713
REMARK  286  A    between atoms: _712  and  _715
REMARK  287  A    between atoms: _715  and  _716
REMARK  288  A    between atoms: _716  and  _717
REMARK  289  A    between atoms: _720  and  _722
REMARK  290  A    between atoms: _722  and  _723
REMARK  291  A    between atoms: _726  and  _728
REMARK  292  A    between atoms: _728  and  _729
REMARK  293  A    between atoms: _732  and  _734
REMARK  294  A    between atoms: _734  and  _735
REMARK  295  A    between atoms: _734  and  _737
REMARK  296  A    between atoms: _737  and  _738
REMARK  297  A    between atoms: _738  and  _739
REMARK  298  A    between atoms: _739  and  _740
REMARK  299  A    between atoms: _749  and  _751
REMARK  300  A    between atoms: _751  and  _752
REMARK  301  A    between atoms: _751  and  _754
REMARK  302  A    between atoms: _754  and  _755
REMARK  303  A    between atoms: _755  and  _756
REMARK  304  A    between atoms: _759  and  _761
REMARK  305  A    between atoms: _761  and  _762
REMARK  306  A    between atoms: _765  and  _767
REMARK  307  A    between atoms: _767  and  _768
REMARK  308  A    between atoms: _767  and  _770
REMARK  309  A    between atoms: _770  and  _771
REMARK  310  A    between atoms: _771  and  _772
REMARK  311  A    between atoms: _775  and  _777
REMARK  312  A    between atoms: _777  and  _778
REMARK  313  A    between atoms: _777  and  _780
REMARK  314  A    between atoms: _780  and  _781
REMARK  315  A    between atoms: _781  and  _782
REMARK  316  A    between atoms: _787  and  _789
REMARK  317  A    between atoms: _789  and  _790
REMARK  318  A    between atoms: _789  and  _792
REMARK  319  A    between atoms: _792  and  _793
REMARK  320  A    between atoms: _803  and  _805
REMARK  321  A    between atoms: _805  and  _806
REMARK  322  A    between atoms: _805  and  _808
REMARK  323  A    between atoms: _808  and  _809
REMARK  324  A    between atoms: _809  and  _810
REMARK  325  A    between atoms: _810  and  _811
REMARK  326  A    between atoms: _820  and  _822
REMARK  327  A    between atoms: _822  and  _823
REMARK  328  A    between atoms: _826  and  _828
REMARK  329  A    between atoms: _828  and  _829
REMARK  330  A    between atoms: _828  and  _831
REMARK  331  A    between atoms: _831  and  _832
REMARK  332  A    between atoms: _837  and  _838
REMARK  333  A    between atoms: _840  and  _842
REMARK  334  A    between atoms: _842  and  _843
REMARK  335  A    between atoms: _842  and  _845
REMARK  336  A    between atoms: _845  and  _846
REMARK  337  A    between atoms: _849  and  _851
REMARK  338  A    between atoms: _851  and  _852
REMARK  339  A    between atoms: _854  and  _856
REMARK  340  A    between atoms: _856  and  _857
REMARK  341  A    between atoms: _856  and  _859
REMARK  342  A    between atoms: _859  and  _860
REMARK  343  A    between atoms: _863  and  _865
REMARK  344  A    between atoms: _865  and  _866
REMARK  345  A    between atoms: _865  and  _868
REMARK  346  A    between atoms: _868  and  _869
REMARK  347  A    between atoms: _870  and  _872
REMARK  348  A    between atoms: _872  and  _873
REMARK  349  A    between atoms: _872  and  _875
REMARK  350  A    between atoms: _878  and  _880
REMARK  351  A    between atoms: _880  and  _881
REMARK  352  A    between atoms: _880  and  _883
REMARK  353  A    between atoms: _883  and  _884
REMARK  354  A    between atoms: _884  and  _885
REMARK  355  A    between atoms: _888  and  _890
REMARK  356  A    between atoms: _890  and  _891
REMARK  357  A    between atoms: _890  and  _893
REMARK  358  A    between atoms: _893  and  _894
REMARK  359  A    between atoms: _904  and  _906
REMARK  360  A    between atoms: _906  and  _907
REMARK  361  A    between atoms: _906  and  _909
REMARK  362  A    between atoms: _909  and  _910
REMARK  363  A    between atoms: _913  and  _915
REMARK  364  A    between atoms: _915  and  _916
REMARK  365  A    between atoms: _915  and  _918
REMARK  366  A    between atoms: _918  and  _919
REMARK  367  A    between atoms: _919  and  _920
REMARK  368  A    between atoms: _920  and  _921
REMARK  369  A    between atoms: _930  and  _932
REMARK  370  A    between atoms: _932  and  _933
REMARK  371  A    between atoms: _932  and  _935
REMARK  372  A    between atoms: _935  and  _936
REMARK  373  A    between atoms: _941  and  _942
REMARK  374  A    between atoms: _944  and  _946
REMARK  375  A    between atoms: _946  and  _947
REMARK  376  A    between atoms: _946  and  _949
REMARK  377  A    between atoms: _949  and  _950
REMARK                            x       y       z     vdW  Elec       q    Type
REMARK                         _______ _______ _______ _____ _____    ______ ____
ROOT
ATOM      1  CA  ALA A  12      34.354  20.489  38.736  0.00  0.00    +0.149 C 
ATOM      2  CB  ALA A  12      34.000  21.905  38.222  0.00  0.00    +0.031 C 
ENDROOT
BRANCH   1   5
ATOM      3  C   ALA A  11      36.320  19.086  38.332  0.00  0.00    +0.241 C 
ATOM      4  O   ALA A  11      36.429  18.813  39.521  0.00  0.00    -0.273 OA
ATOM      5  N   ALA A  12      35.345  19.865  37.860  0.00  0.00    -0.297 N 
ATOM      6  H   ALA A  12      35.288  20.034  36.835  0.00  0.00    +0.150 HD
BRANCH   3   7
ATOM      7  CA  ALA A  11      37.308  18.504  37.329  0.00  0.00    +0.149 C 
ATOM      8  CB  ALA A  11      38.505  19.419  37.164  0.00  0.00    +0.031 C 
BRANCH   7  11
ATOM      9  C   GLU A  10      35.687  17.381  35.869  0.00  0.00    +0.241 C 
ATOM     10  O   GLU A  10      35.167  16.714  36.789  0.00  0.00    -0.273 OA
ATOM     11  N   ALA A  11      36.689  18.244  36.047  0.00  0.00    -0.297 N 
ATOM     12  H   ALA A  11      37.046  18.759  35.217  0.00  0.00    +0.150 HD
BRANCH   9  13
ATOM     13  CA  GLU A  10      35.152  17.298  34.437  0.00  0.00    +0.149 C 
BRANCH  13  16
ATOM     14  C   TRP A   9      34.033  19.480  34.410  0.00  0.00    +0.241 C 
ATOM     15  O   TRP A   9      33.333  19.214  35.384  0.00  0.00    -0.273 OA
ATOM     16  N   GLU A  10      34.911  18.635  33.875  0.00  0.00    -0.297 N 
ATOM     17  H   GLU A  10      35.444  18.930  33.032  0.00  0.00    +0.150 HD
BRANCH  14  18
ATOM     18  CA  TRP A   9      33.988  20.871  33.798  0.00  0.00    +0.153 C 
BRANCH  18  21
ATOM     19  C   LYS A   8      36.234  21.639  34.311  0.00  0.00    +0.241 C 
ATOM     20  O   LYS A   8      36.052  21.540  35.527  0.00  0.00    -0.273 OA
ATOM     21  N   TRP A   9      35.313  21.325  33.406  0.00  0.00    -0.297 N 
ATOM     22  H   TRP A   9      35.545  21.406  32.395  0.00  0.00    +0.150 HD
BRANCH  19  23
ATOM     23  CA  LYS A   8      37.534  22.172  33.754  0.00  0.00    +0.149 C 
BRANCH  23  26
ATOM     24  C   ARG A   7      38.261  20.100  32.666  0.00  0.00    +0.241 C 
ATOM     25  O   ARG A   7      38.199  19.475  33.720  0.00  0.00    -0.273 OA
ATOM     26  N   LYS A   8      37.977  21.401  32.588  0.00  0.00    -0.297 N 
ATOM     27  H   LYS A   8      38.073  21.884  31.672  0.00  0.00    +0.150 HD
BRANCH  24  28
ATOM     28  CA  ARG A   7      38.662  19.387  31.381  0.00  0.00    +0.149 C 
BRANCH  28  31
ATOM     29  C   GLN A   6      36.473  19.553  30.297  0.00  0.00    +0.241 C 
ATOM     30  O   GLN A   6      35.932  19.035  31.282  0.00  0.00    -0.273 OA
ATOM     31  N   ARG A   7      37.793  19.775  30.241  0.00  0.00    -0.297 N 
ATOM     32  H   ARG A   7      38.210  20.220  29.398  0.00  0.00    +0.150 HD
BRANCH  29  33
ATOM     33  CA  GLN A   6      35.630  20.008  29.085  0.00  0.00    +0.149 C 
BRANCH  33  36
ATOM     34  C   THR A   5      36.000  22.374  29.558  0.00  0.00    +0.243 C 
ATOM     35  O   THR A   5      35.653  22.250  30.730  0.00  0.00    -0.273 OA
ATOM     36  N   GLN A   6      36.013  21.373  28.685  0.00  0.00    -0.297 N 
ATOM     37  H   GLN A   6      36.299  21.556  27.702  0.00  0.00    +0.150 HD
BRANCH  34  38
ATOM     38  CA  THR A   5      36.436  23.753  29.027  0.00  0.00    +0.176 C 
BRANCH  38  41
ATOM     39  C   ILE A   4      38.771  23.191  28.802  0.00  0.00    +0.241 C 
ATOM     40  O   ILE A   4      38.845  22.926  30.019  0.00  0.00    -0.273 OA
ATOM     41  N   THR A   5      37.655  23.652  28.250  0.00  0.00    -0.295 N 
ATOM     42  H   THR A   5      37.656  23.943  27.252  0.00  0.00    +0.150 HD
BRANCH  39  43
ATOM     43  CA  ILE A   4      39.959  23.003  27.870  0.00  0.00    +0.149 C 
BRANCH  43  46
ATOM     44  C   GLN A   3      39.052  21.084  26.616  0.00  0.00    +0.241 C 
ATOM     45  O   GLN A   3      39.011  20.401  27.620  0.00  0.00    -0.273 OA
ATOM     46  N   ILE A   4      39.570  22.316  26.622  0.00  0.00    -0.297 N 
ATOM     47  H   ILE A   4      39.704  22.808  25.716  0.00  0.00    +0.150 HD
BRANCH  44  48
ATOM     48  CA  GLN A   3      38.544  20.520  25.299  0.00  0.00    +0.149 C 
BRANCH  48  51
ATOM     49  C   ALA A   2      36.846  22.225  24.927  0.00  0.00    +0.241 C 
ATOM     50  O   ALA A   2      36.266  21.913  25.983  0.00  0.00    -0.273 OA
ATOM     51  N   GLN A   3      37.906  21.557  24.462  0.00  0.00    -0.297 N 
ATOM     52  H   GLN A   3      38.280  21.766  23.515  0.00  0.00    +0.150 HD
BRANCH  49  53
ATOM     53  CA  ALA A   2      36.343  23.385  24.074  0.00  0.00    +0.149 C 
ATOM     54  CB  ALA A   2      35.242  22.935  23.139  0.00  0.00    +0.031 C 
BRANCH  53  57
ATOM     55  C   ALA A   1      38.437  24.591  23.930  0.00  0.00    +0.238 C 
ATOM     56  O   ALA A   1      38.528  24.698  25.160  0.00  0.00    -0.274 OA
ATOM     57  N   ALA A   2      37.413  24.000  23.316  0.00  0.00    -0.297 N 
ATOM     58  H   ALA A   2      37.381  23.980  22.277  0.00  0.00    +0.150 HD
BRANCH  55  59
ATOM     59  CA  ALA A   1      39.494  25.186  23.011  0.00  0.00    +0.145 C 
ATOM     60  CB  ALA A   1      38.936  26.437  22.351  0.00  0.00    +0.028 C 
BRANCH  59  61
ATOM     61  N   ALA A   1      39.903  24.200  22.014  0.00  0.00    -0.238 NA
ATOM     62  H   ALA A   1      39.669  24.363  21.014  0.00  0.00    +0.142 HD
ENDBRANCH  59  61
ENDBRANCH  55  59
ENDBRANCH  53  57
ENDBRANCH  49  53
ENDBRANCH  48  51
BRANCH  48  63
ATOM     63  CB  GLN A   3      39.675  19.795  24.549  0.00  0.00    +0.039 C 
BRANCH  63  64
ATOM     64  CG  GLN A   3      39.180  18.908  23.401  0.00  0.00    +0.087 C 
BRANCH  64  65
ATOM     65  CD  GLN A   3      40.305  18.499  22.424  0.00  0.00    +0.219 C 
ATOM     66  NE2 GLN A   3      41.525  18.595  22.865  0.00  0.00    -0.329 N 
ATOM     67 HE21 GLN A   3      41.701  18.884  23.848  0.00  0.00    +0.145 HD
ATOM     68 HE22 GLN A   3      42.324  18.383  22.234  0.00  0.00    +0.145 HD
ATOM     69  OE1 GLN A   3      40.042  18.158  21.258  0.00  0.00    -0.275 OA
ENDBRANCH  64  65
ENDBRANCH  63  64
ENDBRANCH  48  63
ENDBRANCH  44  48
ENDBRANCH  43  46
BRANCH  43  70
ATOM     70  CB  ILE A   4      40.668  24.381  27.608  0.00  0.00    +0.027 C 
ATOM     71  CG2 ILE A   4      41.058  25.076  28.956  0.00  0.00    +0.002 C 
BRANCH  70  72
ATOM     72  CG1 ILE A   4      41.851  24.251  26.633  0.00  0.00    +0.002 C 
ATOM     73  CD1 ILE A   4      42.933  23.208  27.015  0.00  0.00    +0.000 C 
ENDBRANCH  70  72
ENDBRANCH  43  70
ENDBRANCH  39  43
ENDBRANCH  38  41
BRANCH  38  74
ATOM     74  CB  THR A   5      35.334  24.353  28.148  0.00  0.00    +0.137 C 
ATOM     75  CG2 THR A   5      34.022  24.432  28.922  0.00  0.00    +0.034 C 
BRANCH  74  76
ATOM     76  OG1 THR A   5      35.684  25.718  27.892  0.00  0.00    -0.382 OA
ATOM     77  HG1 THR A   5      35.748  26.208  28.750  0.00  0.00    +0.210 HD
ENDBRANCH  74  76
ENDBRANCH  38  74
ENDBRANCH  34  38
ENDBRANCH  33  36
BRANCH  33  78
ATOM     78  CB  GLN A   6      35.782  19.036  27.908  0.00  0.00    +0.039 C 
BRANCH  78  79
ATOM     79  CG  GLN A   6      35.300  17.605  28.223  0.00  0.00    +0.087 C 
BRANCH  79  80
ATOM     80  CD  GLN A   6      35.405  16.673  27.033  0.00  0.00    +0.219 C 
ATOM     81  NE2 GLN A   6      35.287  15.367  27.284  0.00  0.00    -0.329 N 
ATOM     82 HE21 GLN A   6      35.100  15.038  28.253  0.00  0.00    +0.145 HD
ATOM     83 HE22 GLN A   6      35.382  14.678  26.511  0.00  0.00    +0.145 HD
ATOM     84  OE1 GLN A   6      35.625  17.118  25.911  0.00  0.00    -0.275 OA
ENDBRANCH  79  80
ENDBRANCH  78  79
ENDBRANCH  33  78
ENDBRANCH  29  33
ENDBRANCH  28  31
BRANCH  28  85
ATOM     85  CB  ARG A   7      40.141  19.643  31.070  0.00  0.00    +0.033 C 
BRANCH  85  86
ATOM     86  CG  ARG A   7      40.729  18.670  30.049  0.00  0.00    +0.045 C 
BRANCH  86  87
ATOM     87  CD  ARG A   7      42.065  19.150  29.461  0.00  0.00    +0.174 C 
BRANCH  87  88
ATOM     88  NE  ARG A   7      42.299  18.677  28.095  0.00  0.00    -0.265 N 
ATOM     89  HE  ARG A   7      41.692  17.915  27.731  0.00  0.00    +0.259 HD
ATOM     90  CZ  ARG A   7      43.248  19.167  27.285  0.00  0.00    +0.342 C 
ATOM     91  NH2 ARG A   7      44.063  20.137  27.701  0.00  0.00    -0.292 N 
ATOM     92 HH21 ARG A   7      43.966  20.521  28.663  0.00  0.00    +0.255 HD
ATOM     93 HH22 ARG A   7      44.796  20.509  27.064  0.00  0.00    +0.255 HD
ATOM     94  NH1 ARG A   7      43.389  18.678  26.051  0.00  0.00    -0.292 N 
ATOM     95 HH11 ARG A   7      42.763  17.917  25.718  0.00  0.00    +0.255 HD
ATOM     96 HH12 ARG A   7      44.125  19.058  25.422  0.00  0.00    +0.255 HD
ENDBRANCH  87  88
ENDBRANCH  86  87
ENDBRANCH  85  86
ENDBRANCH  28  85
ENDBRANCH  24  28
ENDBRANCH  23  26
BRANCH  23  97
ATOM     97  CB  LYS A   8      37.285  23.645  33.408  0.00  0.00    +0.029 C 
BRANCH  97  98
ATOM     98  CG  LYS A   8      38.466  24.461  33.113  0.00  0.00    +0.000 C 
BRANCH  98  99
ATOM     99  CD  LYS A   8      38.056  25.935  33.193  0.00  0.00    -0.024 C 
BRANCH  99 100
ATOM    100  CE  LYS A   8      39.130  26.735  32.569  0.00  0.00    -0.086 C 
BRANCH 100 101
ATOM    101  NZ  LYS A   8      38.884  28.189  32.565  0.00  0.00    +0.380 N 
ATOM    102  HZ1 LYS A   8      38.785  28.525  33.544  0.00  0.00    -0.089 HD
ATOM    103  HZ2 LYS A   8      39.684  28.673  32.110  0.00  0.00    -0.089 HD
ATOM    104  HZ3 LYS A   8      38.010  28.390  32.038  0.00  0.00    -0.089 HD
ENDBRANCH 100 101
ENDBRANCH  99 100
ENDBRANCH  98  99
ENDBRANCH  97  98
ENDBRANCH  23  97
ENDBRANCH  19  23
ENDBRANCH  18  21
BRANCH  18 105
ATOM    105  CB  TRP A   9      33.037  20.951  32.595  0.00  0.00    +0.057 C 
BRANCH 105 106
ATOM    106  CG  TRP A   9      32.651  22.389  32.322  0.00  0.00    -0.002 A 
ATOM    107  CD1 TRP A   9      33.182  23.525  32.896  0.00  0.00    +0.068 A 
ATOM    108  NE1 TRP A   9      32.584  24.654  32.358  0.00  0.00    -0.352 N 
ATOM    109  HE1 TRP A   9      32.801  25.636  32.624  0.00  0.00    +0.166 HD
ATOM    110  CE2 TRP A   9      31.661  24.270  31.419  0.00  0.00    +0.056 A 
ATOM    111  CZ2 TRP A   9      30.816  25.053  30.594  0.00  0.00    +0.017 A 
ATOM    112  CH2 TRP A   9      29.982  24.386  29.724  0.00  0.00    +0.001 A 
ATOM    113  CZ3 TRP A   9      29.986  22.977  29.643  0.00  0.00    +0.000 A 
ATOM    114  CE3 TRP A   9      30.838  22.204  30.456  0.00  0.00    +0.001 A 
ATOM    115  CD2 TRP A   9      31.693  22.847  31.350  0.00  0.00    +0.013 A 
ENDBRANCH 105 106
ENDBRANCH  18 105
ENDBRANCH  14  18
ENDBRANCH  13  16
BRANCH  13 116
ATOM    116  CB  GLU A  10      36.076  16.490  33.515  0.00  0.00    +0.041 C 
BRANCH 116 117
ATOM    117  CG  GLU A  10      35.340  15.922  32.303  0.00  0.00    +0.116 C 
BRANCH 117 118
ATOM    118  CD  GLU A  10      36.245  15.435  31.197  0.00  0.00    +0.365 C 
ATOM    119  OE2 GLU A  10      37.477  15.652  31.291  0.00  0.00    -0.246 OA
ATOM    120  OE1 GLU A  10      35.721  14.832  30.222  0.00  0.00    -0.246 OA
ENDBRANCH 117 118
ENDBRANCH 116 117
ENDBRANCH  13 116
ENDBRANCH   9  13
ENDBRANCH   7  11
ENDBRANCH   3   7
ENDBRANCH   1   5
BRANCH   1 121
ATOM    121  C   ALA A  12      33.082  19.647  38.916  0.00  0.00    +0.241 C 
ATOM    122  O   ALA A  12      32.113  20.107  39.512  0.00  0.00    -0.273 OA
ATOM    123  N   ARG A  13      33.092  18.432  38.381  0.00  0.00    -0.297 N 
ATOM    124  H   ARG A  13      33.978  18.084  37.961  0.00  0.00    +0.150 HD
BRANCH 123 125
ATOM    125  CA  ARG A  13      31.910  17.551  38.352  0.00  0.00    +0.149 C 
BRANCH 125 126
ATOM    126  C   ARG A  13      30.641  18.265  37.849  0.00  0.00    +0.241 C 
ATOM    127  O   ARG A  13      29.553  18.157  38.455  0.00  0.00    -0.273 OA
ATOM    128  N   GLU A  14      30.775  19.023  36.752  0.00  0.00    -0.297 N 
ATOM    129  H   GLU A  14      31.696  19.077  36.271  0.00  0.00    +0.150 HD
BRANCH 128 130
ATOM    130  CA  GLU A  14      29.621  19.786  36.218  0.00  0.00    +0.149 C 
BRANCH 130 131
ATOM    131  C   GLU A  14      28.522  18.879  35.686  0.00  0.00    +0.241 C 
ATOM    132  O   GLU A  14      27.348  19.170  35.883  0.00  0.00    -0.273 OA
ATOM    133  N   ALA A  15      28.902  17.783  35.022  0.00  0.00    -0.297 N 
ATOM    134  H   ALA A  15      29.915  17.566  34.930  0.00  0.00    +0.150 HD
BRANCH 133 135
ATOM    135  CA  ALA A  15      27.911  16.877  34.418  0.00  0.00    +0.149 C 
ATOM    136  CB  ALA A  15      28.591  15.788  33.628  0.00  0.00    +0.031 C 
BRANCH 135 137
ATOM    137  C   ALA A  15      26.990  16.293  35.502  0.00  0.00    +0.241 C 
ATOM    138  N   GLU A  16      27.557  15.984  36.667  0.00  0.00    -0.297 N 
ATOM    139  H   GLU A  16      28.582  16.108  36.790  0.00  0.00    +0.150 HD
ATOM    140  O   ALA A  15      25.782  16.189  35.315  0.00  0.00    -0.273 OA
BRANCH 138 141
ATOM    141  CA  GLU A  16      26.746  15.468  37.782  0.00  0.00    +0.149 C 
BRANCH 141 142
ATOM    142  C   GLU A  16      25.686  16.471  38.225  0.00  0.00    +0.241 C 
ATOM    143  O   GLU A  16      24.535  16.105  38.473  0.00  0.00    -0.273 OA
ATOM    144  N   GLN A  17      26.095  17.737  38.312  0.00  0.00    -0.297 N 
ATOM    145  H   GLN A  17      27.092  17.951  38.107  0.00  0.00    +0.150 HD
BRANCH 144 146
ATOM    146  CA  GLN A  17      25.216  18.828  38.679  0.00  0.00    +0.149 C 
BRANCH 146 147
ATOM    147  C   GLN A  17      24.096  18.965  37.613  0.00  0.00    +0.241 C 
ATOM    148  O   GLN A  17      22.929  19.055  37.944  0.00  0.00    -0.273 OA
ATOM    149  N   TRP A  18      24.467  18.920  36.347  0.00  0.00    -0.297 N 
ATOM    150  H   TRP A  18      25.476  18.837  36.109  0.00  0.00    +0.150 HD
BRANCH 149 151
ATOM    151  CA  TRP A  18      23.462  18.987  35.262  0.00  0.00    +0.153 C 
BRANCH 151 152
ATOM    152  C   TRP A  18      22.491  17.806  35.293  0.00  0.00    +0.241 C 
ATOM    153  N   ARG A  19      23.006  16.592  35.444  0.00  0.00    -0.297 N 
ATOM    154  H   ARG A  19      24.034  16.467  35.535  0.00  0.00    +0.150 HD
ATOM    155  O   TRP A  18      21.265  17.993  35.185  0.00  0.00    -0.273 OA
BRANCH 153 156
ATOM    156  CA  ARG A  19      22.119  15.434  35.481  0.00  0.00    +0.149 C 
BRANCH 156 157
ATOM    157  C   ARG A  19      21.105  15.581  36.614  0.00  0.00    +0.241 C 
ATOM    158  N   ALA A  20      21.568  16.028  37.789  0.00  0.00    -0.297 N 
ATOM    159  H   ALA A  20      22.572  16.288  37.863  0.00  0.00    +0.150 HD
ATOM    160  O   ARG A  19      19.936  15.297  36.416  0.00  0.00    -0.273 OA
BRANCH 158 161
ATOM    161  CA  ALA A  20      20.714  16.166  38.979  0.00  0.00    +0.149 C 
ATOM    162  CB  ALA A  20      21.534  16.598  40.181  0.00  0.00    +0.031 C 
BRANCH 161 163
ATOM    163  C   ALA A  20      19.614  17.190  38.715  0.00  0.00    +0.241 C 
ATOM    164  O   ALA A  20      18.450  16.971  39.067  0.00  0.00    -0.273 OA
ATOM    165  N   TYR A  21      19.983  18.288  38.063  0.00  0.00    -0.297 N 
ATOM    166  H   TYR A  21      20.982  18.415  37.804  0.00  0.00    +0.150 HD
BRANCH 165 167
ATOM    167  CA  TYR A  21      19.006  19.328  37.700  0.00  0.00    +0.153 C 
BRANCH 167 168
ATOM    168  C   TYR A  21      18.026  18.795  36.657  0.00  0.00    +0.241 C 
ATOM    169  O   TYR A  21      16.809  18.982  36.787  0.00  0.00    -0.273 OA
ATOM    170  N   LEU A  22      18.568  18.190  35.598  0.00  0.00    -0.298 N 
ATOM    171  H   LEU A  22      19.589  17.993  35.583  0.00  0.00    +0.150 HD
BRANCH 170 172
ATOM    172  CA  LEU A  22      17.733  17.800  34.452  0.00  0.00    +0.137 C 
BRANCH 172 173
ATOM    173  C   LEU A  22      16.712  16.733  34.824  0.00  0.00    +0.227 C 
ATOM    174  O   LEU A  22      15.610  16.740  34.340  0.00  0.00    -0.286 OA
ENDBRANCH 172 173
BRANCH 172 175
ATOM    175  CB  LEU A  22      18.589  17.361  33.258  0.00  0.00    +0.028 C 
BRANCH 175 176
ATOM    176  CG  LEU A  22      19.436  18.503  32.682  0.00  0.00    +0.002 C 
ATOM    177  CD2 LEU A  22      18.536  19.585  31.953  0.00  0.00    +0.000 C 
ATOM    178  CD1 LEU A  22      20.527  17.982  31.747  0.00  0.00    +0.000 C 
ENDBRANCH 175 176
ENDBRANCH 172 175
ENDBRANCH 170 172
ENDBRANCH 167 168
BRANCH 167 179
ATOM    179  CB  TYR A  21      19.721  20.574  37.113  0.00  0.00    +0.055 C 
BRANCH 179 180
ATOM    180  CG  TYR A  21      18.760  21.527  36.417  0.00  0.00    -0.020 A 
ATOM    181  CD2 TYR A  21      17.848  22.287  37.162  0.00  0.00    -0.001 A 
ATOM    182  CE2 TYR A  21      16.950  23.132  36.554  0.00  0.00    +0.036 A 
ATOM    183  CZ  TYR A  21      16.951  23.245  35.146  0.00  0.00    +0.134 A 
ATOM    184  CE1 TYR A  21      17.824  22.470  34.375  0.00  0.00    +0.036 A 
ATOM    185  CD1 TYR A  21      18.732  21.627  35.014  0.00  0.00    -0.001 A 
BRANCH 183 186
ATOM    186  OH  TYR A  21      16.048  24.064  34.491  0.00  0.00    -0.506 OA
ATOM    187  HH  TYR A  21      15.500  24.549  35.158  0.00  0.00    +0.292 HD
ENDBRANCH 183 186
ENDBRANCH 179 180
ENDBRANCH 167 179
ENDBRANCH 165 167
ENDBRANCH 161 163
ENDBRANCH 158 161
ENDBRANCH 156 157
BRANCH 156 188
ATOM    188  CB  ARG A  19      22.911  14.141  35.674  0.00  0.00    +0.033 C 
BRANCH 188 189
ATOM    189  CG  ARG A  19      22.047  12.896  35.676  0.00  0.00    +0.045 C 
BRANCH 189 190
ATOM    190  CD  ARG A  19      22.842  11.654  36.069  0.00  0.00    +0.174 C 
BRANCH 190 191
ATOM    191  NE  ARG A  19      21.957  10.537  36.394  0.00  0.00    -0.265 N 
ATOM    192  CZ  ARG A  19      22.384   9.307  36.649  0.00  0.00    +0.342 C 
ATOM    193  NH2 ARG A  19      21.510   8.348  36.924  0.00  0.00    -0.292 N 
ATOM    194 HH21 ARG A  19      21.843   7.383  37.124  0.00  0.00    +0.255 HD
ATOM    195 HH22 ARG A  19      20.492   8.561  36.939  0.00  0.00    +0.255 HD
ATOM    196  NH1 ARG A  19      23.683   9.036  36.604  0.00  0.00    -0.292 N 
ATOM    197 HH11 ARG A  19      24.020   8.073  36.803  0.00  0.00    +0.255 HD
ATOM    198 HH12 ARG A  19      24.363   9.787  36.369  0.00  0.00    +0.255 HD
ATOM    199  HE  ARG A  19      20.933  10.717  36.427  0.00  0.00    +0.259 HD
ENDBRANCH 190 191
ENDBRANCH 189 190
ENDBRANCH 188 189
ENDBRANCH 156 188
ENDBRANCH 153 156
ENDBRANCH 151 152
BRANCH 151 200
ATOM    200  CB  TRP A  18      24.127  19.142  33.888  0.00  0.00    +0.057 C 
BRANCH 200 201
ATOM    201  CG  TRP A  18      24.538  20.551  33.704  0.00  0.00    -0.002 A 
ATOM    202  CD1 TRP A  18      25.795  21.072  33.820  0.00  0.00    +0.068 A 
ATOM    203  NE1 TRP A  18      25.759  22.438  33.648  0.00  0.00    -0.352 N 
ATOM    204  HE1 TRP A  18      26.582  23.073  33.676  0.00  0.00    +0.166 HD
ATOM    205  CE2 TRP A  18      24.464  22.822  33.434  0.00  0.00    +0.056 A 
ATOM    206  CZ2 TRP A  18      23.927  24.095  33.185  0.00  0.00    +0.017 A 
ATOM    207  CH2 TRP A  18      22.572  24.187  33.004  0.00  0.00    +0.001 A 
ATOM    208  CZ3 TRP A  18      21.757  23.055  33.024  0.00  0.00    +0.000 A 
ATOM    209  CE3 TRP A  18      22.289  21.771  33.260  0.00  0.00    +0.001 A 
ATOM    210  CD2 TRP A  18      23.668  21.650  33.472  0.00  0.00    +0.013 A 
ENDBRANCH 200 201
ENDBRANCH 151 200
ENDBRANCH 149 151
ENDBRANCH 146 147
BRANCH 146 211
ATOM    211  CB  GLN A  17      26.027  20.115  38.803  0.00  0.00    +0.039 C 
BRANCH 211 212
ATOM    212  CG  GLN A  17      25.184  21.295  39.238  0.00  0.00    +0.087 C 
BRANCH 212 213
ATOM    213  CD  GLN A  17      26.025  22.498  39.619  0.00  0.00    +0.219 C 
ATOM    214  OE1 GLN A  17      26.423  22.569  40.881  0.00  0.00    -0.275 OA
ATOM    215  NE2 GLN A  17      26.307  23.349  38.782  0.00  0.00    -0.329 N 
ATOM    216 HE21 GLN A  17      26.883  24.172  39.051  0.00  0.00    +0.145 HD
ATOM    217 HE22 GLN A  17      25.970  23.248  37.803  0.00  0.00    +0.145 HD
ENDBRANCH 212 213
ENDBRANCH 211 212
ENDBRANCH 146 211
ENDBRANCH 144 146
ENDBRANCH 141 142
BRANCH 141 218
ATOM    218  CB  GLU A  16      27.644  15.058  38.956  0.00  0.00    +0.041 C 
BRANCH 218 219
ATOM    219  CG  GLU A  16      28.434  13.786  38.709  0.00  0.00    +0.116 C 
BRANCH 219 220
ATOM    220  CD  GLU A  16      29.714  13.948  37.863  0.00  0.00    +0.365 C 
ATOM    221  OE2 GLU A  16      30.416  12.920  37.695  0.00  0.00    -0.246 OA
ATOM    222  OE1 GLU A  16      30.051  15.052  37.366  0.00  0.00    -0.246 OA
ENDBRANCH 219 220
ENDBRANCH 218 219
ENDBRANCH 141 218
ENDBRANCH 138 141
ENDBRANCH 135 137
ENDBRANCH 133 135
ENDBRANCH 130 131
BRANCH 130 223
ATOM    223  CB  GLU A  14      30.000  20.826  35.139  0.00  0.00    +0.041 C 
BRANCH 223 224
ATOM    224  CG  GLU A  14      29.276  22.161  35.383  0.00  0.00    +0.116 C 
BRANCH 224 225
ATOM    225  CD  GLU A  14      28.701  22.885  34.161  0.00  0.00    +0.365 C 
ATOM    226  OE2 GLU A  14      27.962  23.861  34.397  0.00  0.00    -0.246 OA
ATOM    227  OE1 GLU A  14      28.926  22.524  32.982  0.00  0.00    -0.246 OA
ENDBRANCH 224 225
ENDBRANCH 223 224
ENDBRANCH 130 223
ENDBRANCH 128 130
ENDBRANCH 125 126
BRANCH 125 228
ATOM    228  CB  ARG A  13      31.666  16.915  39.736  0.00  0.00    +0.033 C 
BRANCH 228 229
ATOM    229  CG  ARG A  13      32.817  16.050  40.234  0.00  0.00    +0.045 C 
BRANCH 229 230
ATOM    230  CD  ARG A  13      33.333  15.015  39.233  0.00  0.00    +0.174 C 
BRANCH 230 231
ATOM    231  NE  ARG A  13      33.702  13.766  39.900  0.00  0.00    -0.265 N 
ATOM    232  HE  ARG A  13      33.951  13.813  40.909  0.00  0.00    +0.259 HD
ATOM    233  CZ  ARG A  13      33.742  12.569  39.307  0.00  0.00    +0.342 C 
ATOM    234  NH2 ARG A  13      34.082  11.486  40.016  0.00  0.00    -0.292 N 
ATOM    235 HH21 ARG A  13      34.314  11.577  41.026  0.00  0.00    +0.255 HD
ATOM    236 HH22 ARG A  13      34.114  10.553  39.557  0.00  0.00    +0.255 HD
ATOM    237  NH1 ARG A  13      33.445  12.445  38.009  0.00  0.00    -0.292 N 
ATOM    238 HH11 ARG A  13      33.478  11.510  37.555  0.00  0.00    +0.255 HD
ATOM    239 HH12 ARG A  13      33.181  13.284  37.454  0.00  0.00    +0.255 HD
ENDBRANCH 230 231
ENDBRANCH 229 230
ENDBRANCH 228 229
ENDBRANCH 125 228
ENDBRANCH 123 125
ENDBRANCH   1 121
TORSDOF 92
REMARK  Name = ../refined-set-2016/1xr9/1xr9_pocket.pdb
REMARK  377 active torsions:
REMARK  status: ('A' for Active; 'I' for Inactive)
REMARK    1  A    between atoms: _1  and  _3
REMARK    2  A    between atoms: _3  and  _4
REMARK    3  A    between atoms: _3  and  _6
REMARK    4  A    between atoms: _6  and  _7
REMARK    5  A    between atoms: _7  and  _8
REMARK    6  A    between atoms: _10  and  _12
REMARK    7  A    between atoms: _12  and  _13
REMARK    8  A    between atoms: _12  and  _15
REMARK    9  A    between atoms: _15  and  _16
REMARK   10  A    between atoms: _16  and  _17
REMARK   11  A    between atoms: _17  and  _18
REMARK   12  A    between atoms: _27  and  _29
REMARK   13  A    between atoms: _29  and  _30
REMARK   14  A    between atoms: _29  and  _32
REMARK   15  A    between atoms: _32  and  _33
REMARK   16  A    between atoms: _38  and  _39
REMARK   17  A    between atoms: _41  and  _43
REMARK   18  A    between atoms: _43  and  _44
REMARK   19  A    between atoms: _43  and  _46
REMARK   20  A    between atoms: _46  and  _47
REMARK   21  A    between atoms: _53  and  _55
REMARK   22  A    between atoms: _55  and  _56
REMARK   23  A    between atoms: _55  and  _58
REMARK   24  A    between atoms: _58  and  _59
REMARK   25  A    between atoms: _64  and  _65
REMARK   26  A    between atoms: _67  and  _69
REMARK   27  A    between atoms: _69  and  _70
REMARK   28  A    between atoms: _69  and  _72
REMARK   29  A    between atoms: _72  and  _73
REMARK   30  A    between atoms: _79  and  _81
REMARK   31  A    between atoms: _81  and  _82
REMARK   32  A    between atoms: _85  and  _87
REMARK   33  A    between atoms: _87  and  _88
REMARK   34  A    between atoms: _87  and  _90
REMARK   35  A    between atoms: _93  and  _95
REMARK   36  A    between atoms: _95  and  _96
REMARK   37  A    between atoms: _98  and  _100
REMARK   38  A    between atoms: _100  and  _101
REMARK   39  A    between atoms: _100  and  _103
REMARK   40  A    between atoms: _106  and  _108
REMARK   41  A    between atoms: _108  and  _109
REMARK   42  A    between atoms: _108  and  _111
REMARK   43  A    between atoms: _111  and  _112
REMARK   44  A    between atoms: _118  and  _120
REMARK   45  A    between atoms: _120  and  _121
REMARK   46  A    between atoms: _120  and  _123
REMARK   47  A    between atoms: _126  and  _128
REMARK   48  A    between atoms: _128  and  _129
REMARK   49  A    between atoms: _128  and  _131
REMARK   50  A    between atoms: _131  and  _132
REMARK   51  A    between atoms: _138  and  _140
REMARK   52  A    between atoms: _140  and  _141
REMARK   53  A    between atoms: _140  and  _143
REMARK   54  A    between atoms: _143  and  _144
REMARK   55  A    between atoms: _144  and  _145
REMARK   56  A    between atoms: _147  and  _149
REMARK   57  A    between atoms: _149  and  _150
REMARK   58  A    between atoms: _149  and  _152
REMARK   59  A    between atoms: _152  and  _153
REMARK   60  A    between atoms: _156  and  _158
REMARK   61  A    between atoms: _158  and  _159
REMARK   62  A    between atoms: _158  and  _161
REMARK   63  A    between atoms: _161  and  _162
REMARK   64  A    between atoms: _162  and  _163
REMARK   65  A    between atoms: _166  and  _168
REMARK   66  A    between atoms: _168  and  _169
REMARK   67  A    between atoms: _168  and  _171
REMARK   68  A    between atoms: _171  and  _172
REMARK   69  A    between atoms: _172  and  _173
REMARK   70  A    between atoms: _176  and  _178
REMARK   71  A    between atoms: _178  and  _179
REMARK   72  A    between atoms: _178  and  _181
REMARK   73  A    between atoms: _181  and  _182
REMARK   74  A    between atoms: _187  and  _188
REMARK   75  A    between atoms: _190  and  _192
REMARK   76  A    between atoms: _192  and  _193
REMARK   77  A    between atoms: _192  and  _195
REMARK   78  A    between atoms: _195  and  _196
REMARK   79  A    between atoms: _206  and  _208
REMARK   80  A    between atoms: _208  and  _209
REMARK   81  A    between atoms: _208  and  _211
REMARK   82  A    between atoms: _211  and  _212
REMARK   83  A    between atoms: _215  and  _217
REMARK   84  A    between atoms: _217  and  _218
REMARK   85  A    between atoms: _217  and  _220
REMARK   86  A    between atoms: _220  and  _221
REMARK   87  A    between atoms: _221  and  _222
REMARK   88  A    between atoms: _222  and  _223
REMARK   89  A    between atoms: _232  and  _234
REMARK   90  A    between atoms: _234  and  _235
REMARK   91  A    between atoms: _234  and  _237
REMARK   92  A    between atoms: _237  and  _238
REMARK   93  A    between atoms: _238  and  _239
REMARK   94  A    between atoms: _242  and  _244
REMARK   95  A    between atoms: _244  and  _245
REMARK   96  A    between atoms: _244  and  _247
REMARK   97  A    between atoms: _247  and  _248
REMARK   98  A    between atoms: _251  and  _253
REMARK   99  A    between atoms: _253  and  _254
REMARK  100  A    between atoms: _253  and  _256
REMARK  101  A    between atoms: _256  and  _257
REMARK  102  A    between atoms: _257  and  _258
REMARK  103  A    between atoms: _263  and  _265
REMARK  104  A    between atoms: _265  and  _266
REMARK  105  A    between atoms: _265  and  _268
REMARK  106  A    between atoms: _268  and  _269
REMARK  107  A    between atoms: _272  and  _274
REMARK  108  A    between atoms: _274  and  _275
REMARK  109  A    between atoms: _274  and  _277
REMARK  110  A    between atoms: _277  and  _278
REMARK  111  A    between atoms: _280  and  _282
REMARK  112  A    between atoms: _282  and  _283
REMARK  113  A    between atoms: _282  and  _285
REMARK  114  A    between atoms: _285  and  _286
REMARK  115  A    between atoms: _286  and  _287
REMARK  116  A    between atoms: _287  and  _288
REMARK  117  A    between atoms: _288  and  _289
REMARK  118  A    between atoms: _293  and  _295
REMARK  119  A    between atoms: _295  and  _296
REMARK  120  A    between atoms: _295  and  _298
REMARK  121  A    between atoms: _298  and  _299
REMARK  122  A    between atoms: _302  and  _304
REMARK  123  A    between atoms: _304  and  _305
REMARK  124  A    between atoms: _304  and  _307
REMARK  125  A    between atoms: _307  and  _308
REMARK  126  A    between atoms: _313  and  _315
REMARK  127  A    between atoms: _315  and  _316
REMARK  128  A    between atoms: _315  and  _318
REMARK  129  A    between atoms: _318  and  _319
REMARK  130  A    between atoms: _319  and  _320
REMARK  131  A    between atoms: _325  and  _327
REMARK  132  A    between atoms: _327  and  _328
REMARK  133  A    between atoms: _327  and  _330
REMARK  134  A    between atoms: _330  and  _331
REMARK  135  A    between atoms: _334  and  _336
REMARK  136  A    between atoms: _336  and  _337
REMARK  137  A    between atoms: _336  and  _339
REMARK  138  A    between atoms: _339  and  _340
REMARK  139  A    between atoms: _345  and  _346
REMARK  140  A    between atoms: _348  and  _350
REMARK  141  A    between atoms: _350  and  _351
REMARK  142  A    between atoms: _350  and  _353
REMARK  143  A    between atoms: _353  and  _354
REMARK  144  A    between atoms: _354  and  _355
REMARK  145  A    between atoms: _355  and  _356
REMARK  146  A    between atoms: _365  and  _367
REMARK  147  A    between atoms: _367  and  _368
REMARK  148  A    between atoms: _367  and  _370
REMARK  149  A    between atoms: _370  and  _371
REMARK  150  A    between atoms: _371  and  _372
REMARK  151  A    between atoms: _375  and  _377
REMARK  152  A    between atoms: _377  and  _378
REMARK  153  A    between atoms: _377  and  _380
REMARK  154  A    between atoms: _380  and  _381
REMARK  155  A    between atoms: _383  and  _385
REMARK  156  A    between atoms: _385  and  _386
REMARK  157  A    between atoms: _385  and  _388
REMARK  158  A    between atoms: _388  and  _389
REMARK  159  A    between atoms: _392  and  _394
REMARK  160  A    between atoms: _394  and  _395
REMARK  161  A    between atoms: _394  and  _397
REMARK  162  A    between atoms: _397  and  _398
REMARK  163  A    between atoms: _398  and  _399
REMARK  164  A    between atoms: _399  and  _400
REMARK  165  A    between atoms: _409  and  _411
REMARK  166  A    between atoms: _411  and  _412
REMARK  167  A    between atoms: _411  and  _414
REMARK  168  A    between atoms: _414  and  _415
REMARK  169  A    between atoms: _420  and  _422
REMARK  170  A    between atoms: _422  and  _423
REMARK  171  A    between atoms: _422  and  _425
REMARK  172  A    between atoms: _425  and  _426
REMARK  173  A    between atoms: _429  and  _431
REMARK  174  A    between atoms: _431  and  _432
REMARK  175  A    between atoms: _431  and  _434
REMARK  176  A    between atoms: _434  and  _435
REMARK  177  A    between atoms: _440  and  _441
REMARK  178  A    between atoms: _443  and  _445
REMARK  179  A    between atoms: _445  and  _446
REMARK  180  A    between atoms: _445  and  _448
REMARK  181  A    between atoms: _448  and  _449
REMARK  182  A    between atoms: _452  and  _454
REMARK  183  A    between atoms: _454  and  _455
REMARK  184  A    between atoms: _454  and  _457
REMARK  185  A    between atoms: _457  and  _458
REMARK  186  A    between atoms: _458  and  _459
REMARK  187  A    between atoms: _464  and  _466
REMARK  188  A    between atoms: _466  and  _467
REMARK  189  A    between atoms: _466  and  _469
REMARK  190  A    between atoms: _469  and  _470
REMARK  191  A    between atoms: _470  and  _471
REMARK  192  A    between atoms: _471  and  _472
REMARK  193  A    between atoms: _481  and  _483
REMARK  194  A    between atoms: _483  and  _484
REMARK  195  A    between atoms: _483  and  _486
REMARK  196  A    between atoms: _486  and  _487
REMARK  197  A    between atoms: _487  and  _488
REMARK  198  A    between atoms: _490  and  _492
REMARK  199  A    between atoms: _492  and  _493
REMARK  200  A    between atoms: _492  and  _495
REMARK  201  A    between atoms: _495  and  _496
REMARK  202  A    between atoms: _501  and  _502
REMARK  203  A    between atoms: _504  and  _506
REMARK  204  A    between atoms: _506  and  _507
REMARK  205  A    between atoms: _509  and  _511
REMARK  206  A    between atoms: _511  and  _512
REMARK  207  A    between atoms: _511  and  _514
REMARK  208  A    between atoms: _514  and  _515
REMARK  209  A    between atoms: _515  and  _869
REMARK  210  A    between atoms: _516  and  _518
REMARK  211  A    between atoms: _518  and  _519
REMARK  212  A    between atoms: _518  and  _521
REMARK  213  A    between atoms: _521  and  _522
REMARK  214  A    between atoms: _525  and  _527
REMARK  215  A    between atoms: _527  and  _528
REMARK  216  A    between atoms: _527  and  _530
REMARK  217  A    between atoms: _530  and  _531
REMARK  218  A    between atoms: _531  and  _532
REMARK  219  A    between atoms: _537  and  _539
REMARK  220  A    between atoms: _539  and  _540
REMARK  221  A    between atoms: _539  and  _542
REMARK  222  A    between atoms: _542  and  _543
REMARK  223  A    between atoms: _545  and  _547
REMARK  224  A    between atoms: _547  and  _548
REMARK  225  A    between atoms: _551  and  _553
REMARK  226  A    between atoms: _553  and  _554
REMARK  227  A    between atoms: _553  and  _556
REMARK  228  A    between atoms: _556  and  _557
REMARK  229  A    between atoms: _562  and  _563
REMARK  230  A    between atoms: _565  and  _567
REMARK  231  A    between atoms: _567  and  _568
REMARK  232  A    between atoms: _567  and  _570
REMARK  233  A    between atoms: _570  and  _571
REMARK  234  A    between atoms: _576  and  _577
REMARK  235  A    between atoms: _579  and  _581
REMARK  236  A    between atoms: _581  and  _582
REMARK  237  A    between atoms: _581  and  _584
REMARK  238  A    between atoms: _584  and  _585
REMARK  239  A    between atoms: _588  and  _590
REMARK  240  A    between atoms: _590  and  _591
REMARK  241  A    between atoms: _594  and  _596
REMARK  242  A    between atoms: _596  and  _597
REMARK  243  A    between atoms: _596  and  _599
REMARK  244  A    between atoms: _599  and  _600
REMARK  245  A    between atoms: _610  and  _612
REMARK  246  A    between atoms: _612  and  _613
REMARK  247  A    between atoms: _616  and  _618
REMARK  248  A    between atoms: _618  and  _619
REMARK  249  A    between atoms: _622  and  _624
REMARK  250  A    between atoms: _624  and  _625
REMARK  251  A    between atoms: _624  and  _627
REMARK  252  A    between atoms: _627  and  _628
REMARK  253  A    between atoms: _628  and  _629
REMARK  254  A    between atoms: _634  and  _636
REMARK  255  A    between atoms: _636  and  _637
REMARK  256  A    between atoms: _636  and  _639
REMARK  257  A    between atoms: _639  and  _640
REMARK  258  A    between atoms: _643  and  _645
REMARK  259  A    between atoms: _645  and  _646
REMARK  260  A    between atoms: _645  and  _648
REMARK  261  A    between atoms: _648  and  _649
REMARK  262  A    between atoms: _652  and  _654
REMARK  263  A    between atoms: _654  and  _655
REMARK  264  A    between atoms: _654  and  _657
REMARK  265  A    between atoms: _657  and  _658
REMARK  266  A    between atoms: _658  and  _659
REMARK  267  A    between atoms: _664  and  _666
REMARK  268  A    between atoms: _666  and  _667
REMARK  269  A    between atoms: _666  and  _669
REMARK  270  A    between atoms: _669  and  _670
REMARK  271  A    between atoms: _670  and  _671
REMARK  272  A    between atoms: _671  and  _672
REMARK  273  A    between atoms: _681  and  _683
REMARK  274  A    between atoms: _683  and  _684
REMARK  275  A    between atoms: _683  and  _686
REMARK  276  A    between atoms: _686  and  _687
REMARK  277  A    between atoms: _687  and  _688
REMARK  278  A    between atoms: _688  and  _689
REMARK  279  A    between atoms: _689  and  _690
REMARK  280  A    between atoms: _694  and  _696
REMARK  281  A    between atoms: _696  and  _697
REMARK  282  A    between atoms: _696  and  _699
REMARK  283  A    between atoms: _699  and  _700
REMARK  284  A    between atoms: _710  and  _712
REMARK  285  A    between atoms: _712  and  _713
REMARK  286  A    between atoms: _712  and  _715
REMARK  287  A    between atoms: _715  and  _716
REMARK  288  A    between atoms: _716  and  _717
REMARK  289  A    between atoms: _720  and  _722
REMARK  290  A    between atoms: _722  and  _723
REMARK  291  A    between atoms: _726  and  _728
REMARK  292  A    between atoms: _728  and  _729
REMARK  293  A    between atoms: _732  and  _734
REMARK  294  A    between atoms: _734  and  _735
REMARK  295  A    between atoms: _734  and  _737
REMARK  296  A    between atoms: _737  and  _738
REMARK  297  A    between atoms: _738  and  _739
REMARK  298  A    between atoms: _739  and  _740
REMARK  299  A    between atoms: _749  and  _751
REMARK  300  A    between atoms: _751  and  _752
REMARK  301  A    between atoms: _751  and  _754
REMARK  302  A    between atoms: _754  and  _755
REMARK  303  A    between atoms: _755  and  _756
REMARK  304  A    between atoms: _759  and  _761
REMARK  305  A    between atoms: _761  and  _762
REMARK  306  A    between atoms: _765  and  _767
REMARK  307  A    between atoms: _767  and  _768
REMARK  308  A    between atoms: _767  and  _770
REMARK  309  A    between atoms: _770  and  _771
REMARK  310  A    between atoms: _771  and  _772
REMARK  311  A    between atoms: _775  and  _777
REMARK  312  A    between atoms: _777  and  _778
REMARK  313  A    between atoms: _777  and  _780
REMARK  314  A    between atoms: _780  and  _781
REMARK  315  A    between atoms: _781  and  _782
REMARK  316  A    between atoms: _787  and  _789
REMARK  317  A    between atoms: _789  and  _790
REMARK  318  A    between atoms: _789  and  _792
REMARK  319  A    between atoms: _792  and  _793
REMARK  320  A    between atoms: _803  and  _805
REMARK  321  A    between atoms: _805  and  _806
REMARK  322  A    between atoms: _805  and  _808
REMARK  323  A    between atoms: _808  and  _809
REMARK  324  A    between atoms: _809  and  _810
REMARK  325  A    between atoms: _810  and  _811
REMARK  326  A    between atoms: _820  and  _822
REMARK  327  A    between atoms: _822  and  _823
REMARK  328  A    between atoms: _826  and  _828
REMARK  329  A    between atoms: _828  and  _829
REMARK  330  A    between atoms: _828  and  _831
REMARK  331  A    between atoms: _831  and  _832
REMARK  332  A    between atoms: _837  and  _838
REMARK  333  A    between atoms: _840  and  _842
REMARK  334  A    between atoms: _842  and  _843
REMARK  335  A    between atoms: _842  and  _845
REMARK  336  A    between atoms: _845  and  _846
REMARK  337  A    between atoms: _849  and  _851
REMARK  338  A    between atoms: _851  and  _852
REMARK  339  A    between atoms: _854  and  _856
REMARK  340  A    between atoms: _856  and  _857
REMARK  341  A    between atoms: _856  and  _859
REMARK  342  A    between atoms: _859  and  _860
REMARK  343  A    between atoms: _863  and  _865
REMARK  344  A    between atoms: _865  and  _866
REMARK  345  A    between atoms: _865  and  _868
REMARK  346  A    between atoms: _868  and  _869
REMARK  347  A    between atoms: _870  and  _872
REMARK  348  A    between atoms: _872  and  _873
REMARK  349  A    between atoms: _872  and  _875
REMARK  350  A    between atoms: _878  and  _880
REMARK  351  A    between atoms: _880  and  _881
REMARK  352  A    between atoms: _880  and  _883
REMARK  353  A    between atoms: _883  and  _884
REMARK  354  A    between atoms: _884  and  _885
REMARK  355  A    between atoms: _888  and  _890
REMARK  356  A    between atoms: _890  and  _891
REMARK  357  A    between atoms: _890  and  _893
REMARK  358  A    between atoms: _893  and  _894
REMARK  359  A    between atoms: _904  and  _906
REMARK  360  A    between atoms: _906  and  _907
REMARK  361  A    between atoms: _906  and  _909
REMARK  362  A    between atoms: _909  and  _910
REMARK  363  A    between atoms: _913  and  _915
REMARK  364  A    between atoms: _915  and  _916
REMARK  365  A    between atoms: _915  and  _918
REMARK  366  A    between atoms: _918  and  _919
REMARK  367  A    between atoms: _919  and  _920
REMARK  368  A    between atoms: _920  and  _921
REMARK  369  A    between atoms: _930  and  _932
REMARK  370  A    between atoms: _932  and  _933
REMARK  371  A    between atoms: _932  and  _935
REMARK  372  A    between atoms: _935  and  _936
REMARK  373  A    between atoms: _941  and  _942
REMARK  374  A    between atoms: _944  and  _946
REMARK  375  A    between atoms: _946  and  _947
REMARK  376  A    between atoms: _946  and  _949
REMARK  377  A    between atoms: _949  and  _950
REMARK                            x       y       z     vdW  Elec       q    Type
REMARK                         _______ _______ _______ _____ _____    ______ ____
ROOT
ATOM      1  C   ARG A   1       3.657  23.534  36.831  0.00  0.00    +0.238 C 
ATOM      2  O   ARG A   1       2.492  23.935  36.900  0.00  0.00    -0.274 OA
ATOM      3  N   TYR A   2       4.528  24.020  35.942  0.00  0.00    -0.298 N 
ATOM      4  H   TYR A   2       5.506  23.666  35.947  0.00  0.00    +0.150 HD
ENDROOT
BRANCH   1   5
ATOM      5  CA  ARG A   1       4.162  22.420  37.774  0.00  0.00    +0.145 C 
BRANCH   5   6
ATOM      6  N   ARG A   1       4.909  21.370  37.067  0.00  0.00    -0.238 NA
ATOM      7  H   ARG A   1       5.894  21.180  37.340  0.00  0.00    +0.142 HD
ENDBRANCH   5   6
BRANCH   5   8
ATOM      8  CB  ARG A   1       5.034  22.998  38.873  0.00  0.00    +0.030 C 
BRANCH   8   9
ATOM      9  CG  ARG A   1       4.456  24.161  39.637  0.00  0.00    +0.045 C 
BRANCH   9  10
ATOM     10  CD  ARG A   1       5.508  24.908  40.398  0.00  0.00    +0.174 C 
BRANCH  10  11
ATOM     11  NE  ARG A   1       4.969  26.023  41.162  0.00  0.00    -0.265 N 
ATOM     12  CZ  ARG A   1       4.786  25.999  42.475  0.00  0.00    +0.342 C 
ATOM     13  NH2 ARG A   1       5.072  24.900  43.163  0.00  0.00    -0.292 N 
ATOM     14 HH21 ARG A   1       4.929  24.879  44.193  0.00  0.00    +0.255 HD
ATOM     15 HH22 ARG A   1       5.439  24.060  42.672  0.00  0.00    +0.255 HD
ATOM     16  NH1 ARG A   1       4.287  27.064  43.097  0.00  0.00    -0.292 N 
ATOM     17 HH11 ARG A   1       4.144  27.045  44.127  0.00  0.00    +0.255 HD
ATOM     18 HH12 ARG A   1       4.040  27.916  42.553  0.00  0.00    +0.255 HD
ATOM     19  HE  ARG A   1       4.712  26.890  40.648  0.00  0.00    +0.259 HD
ENDBRANCH  10  11
ENDBRANCH   9  10
ENDBRANCH   8   9
ENDBRANCH   5   8
ENDBRANCH   1   5
BRANCH   3  20
ATOM     20  CA  TYR A   2       4.143  25.044  34.954  0.00  0.00    +0.141 C 
BRANCH  20  21
ATOM     21  C   TYR A   2       3.024  24.552  34.058  0.00  0.00    +0.227 C 
ATOM     22  O   TYR A   2       2.072  25.294  33.792  0.00  0.00    -0.286 OA
ENDBRANCH  20  21
BRANCH  20  23
ATOM     23  CB  TYR A   2       5.352  25.484  34.093  0.00  0.00    +0.054 C 
BRANCH  23  24
ATOM     24  CG  TYR A   2       6.525  26.051  34.871  0.00  0.00    -0.020 A 
ATOM     25  CD2 TYR A   2       6.349  26.705  36.107  0.00  0.00    -0.001 A 
ATOM     26  CE2 TYR A   2       7.449  27.213  36.817  0.00  0.00    +0.036 A 
ATOM     27  CZ  TYR A   2       8.724  27.098  36.273  0.00  0.00    +0.134 A 
ATOM     28  CE1 TYR A   2       8.912  26.466  35.047  0.00  0.00    +0.036 A 
ATOM     29  CD1 TYR A   2       7.826  25.953  34.364  0.00  0.00    -0.001 A 
BRANCH  27  30
ATOM     30  OH  TYR A   2       9.822  27.556  36.952  0.00  0.00    -0.506 OA
ATOM     31  HH  TYR A   2      10.298  28.222  36.396  0.00  0.00    +0.292 HD
ENDBRANCH  27  30
ENDBRANCH  23  24
ENDBRANCH  20  23
ENDBRANCH   3  20
TORSDOF 11
REMARK  Name = ../refined-set-2016/1xr9/1xr9_pocket.pdb
REMARK  377 active torsions:
REMARK  status: ('A' for Active; 'I' for Inactive)
REMARK    1  A    between atoms: _1  and  _3
REMARK    2  A    between atoms: _3  and  _4
REMARK    3  A    between atoms: _3  and  _6
REMARK    4  A    between atoms: _6  and  _7
REMARK    5  A    between atoms: _7  and  _8
REMARK    6  A    between atoms: _10  and  _12
REMARK    7  A    between atoms: _12  and  _13
REMARK    8  A    between atoms: _12  and  _15
REMARK    9  A    between atoms: _15  and  _16
REMARK   10  A    between atoms: _16  and  _17
REMARK   11  A    between atoms: _17  and  _18
REMARK   12  A    between atoms: _27  and  _29
REMARK   13  A    between atoms: _29  and  _30
REMARK   14  A    between atoms: _29  and  _32
REMARK   15  A    between atoms: _32  and  _33
REMARK   16  A    between atoms: _38  and  _39
REMARK   17  A    between atoms: _41  and  _43
REMARK   18  A    between atoms: _43  and  _44
REMARK   19  A    between atoms: _43  and  _46
REMARK   20  A    between atoms: _46  and  _47
REMARK   21  A    between atoms: _53  and  _55
REMARK   22  A    between atoms: _55  and  _56
REMARK   23  A    between atoms: _55  and  _58
REMARK   24  A    between atoms: _58  and  _59
REMARK   25  A    between atoms: _64  and  _65
REMARK   26  A    between atoms: _67  and  _69
REMARK   27  A    between atoms: _69  and  _70
REMARK   28  A    between atoms: _69  and  _72
REMARK   29  A    between atoms: _72  and  _73
REMARK   30  A    between atoms: _79  and  _81
REMARK   31  A    between atoms: _81  and  _82
REMARK   32  A    between atoms: _85  and  _87
REMARK   33  A    between atoms: _87  and  _88
REMARK   34  A    between atoms: _87  and  _90
REMARK   35  A    between atoms: _93  and  _95
REMARK   36  A    between atoms: _95  and  _96
REMARK   37  A    between atoms: _98  and  _100
REMARK   38  A    between atoms: _100  and  _101
REMARK   39  A    between atoms: _100  and  _103
REMARK   40  A    between atoms: _106  and  _108
REMARK   41  A    between atoms: _108  and  _109
REMARK   42  A    between atoms: _108  and  _111
REMARK   43  A    between atoms: _111  and  _112
REMARK   44  A    between atoms: _118  and  _120
REMARK   45  A    between atoms: _120  and  _121
REMARK   46  A    between atoms: _120  and  _123
REMARK   47  A    between atoms: _126  and  _128
REMARK   48  A    between atoms: _128  and  _129
REMARK   49  A    between atoms: _128  and  _131
REMARK   50  A    between atoms: _131  and  _132
REMARK   51  A    between atoms: _138  and  _140
REMARK   52  A    between atoms: _140  and  _141
REMARK   53  A    between atoms: _140  and  _143
REMARK   54  A    between atoms: _143  and  _144
REMARK   55  A    between atoms: _144  and  _145
REMARK   56  A    between atoms: _147  and  _149
REMARK   57  A    between atoms: _149  and  _150
REMARK   58  A    between atoms: _149  and  _152
REMARK   59  A    between atoms: _152  and  _153
REMARK   60  A    between atoms: _156  and  _158
REMARK   61  A    between atoms: _158  and  _159
REMARK   62  A    between atoms: _158  and  _161
REMARK   63  A    between atoms: _161  and  _162
REMARK   64  A    between atoms: _162  and  _163
REMARK   65  A    between atoms: _166  and  _168
REMARK   66  A    between atoms: _168  and  _169
REMARK   67  A    between atoms: _168  and  _171
REMARK   68  A    between atoms: _171  and  _172
REMARK   69  A    between atoms: _172  and  _173
REMARK   70  A    between atoms: _176  and  _178
REMARK   71  A    between atoms: _178  and  _179
REMARK   72  A    between atoms: _178  and  _181
REMARK   73  A    between atoms: _181  and  _182
REMARK   74  A    between atoms: _187  and  _188
REMARK   75  A    between atoms: _190  and  _192
REMARK   76  A    between atoms: _192  and  _193
REMARK   77  A    between atoms: _192  and  _195
REMARK   78  A    between atoms: _195  and  _196
REMARK   79  A    between atoms: _206  and  _208
REMARK   80  A    between atoms: _208  and  _209
REMARK   81  A    between atoms: _208  and  _211
REMARK   82  A    between atoms: _211  and  _212
REMARK   83  A    between atoms: _215  and  _217
REMARK   84  A    between atoms: _217  and  _218
REMARK   85  A    between atoms: _217  and  _220
REMARK   86  A    between atoms: _220  and  _221
REMARK   87  A    between atoms: _221  and  _222
REMARK   88  A    between atoms: _222  and  _223
REMARK   89  A    between atoms: _232  and  _234
REMARK   90  A    between atoms: _234  and  _235
REMARK   91  A    between atoms: _234  and  _237
REMARK   92  A    between atoms: _237  and  _238
REMARK   93  A    between atoms: _238  and  _239
REMARK   94  A    between atoms: _242  and  _244
REMARK   95  A    between atoms: _244  and  _245
REMARK   96  A    between atoms: _244  and  _247
REMARK   97  A    between atoms: _247  and  _248
REMARK   98  A    between atoms: _251  and  _253
REMARK   99  A    between atoms: _253  and  _254
REMARK  100  A    between atoms: _253  and  _256
REMARK  101  A    between atoms: _256  and  _257
REMARK  102  A    between atoms: _257  and  _258
REMARK  103  A    between atoms: _263  and  _265
REMARK  104  A    between atoms: _265  and  _266
REMARK  105  A    between atoms: _265  and  _268
REMARK  106  A    between atoms: _268  and  _269
REMARK  107  A    between atoms: _272  and  _274
REMARK  108  A    between atoms: _274  and  _275
REMARK  109  A    between atoms: _274  and  _277
REMARK  110  A    between atoms: _277  and  _278
REMARK  111  A    between atoms: _280  and  _282
REMARK  112  A    between atoms: _282  and  _283
REMARK  113  A    between atoms: _282  and  _285
REMARK  114  A    between atoms: _285  and  _286
REMARK  115  A    between atoms: _286  and  _287
REMARK  116  A    between atoms: _287  and  _288
REMARK  117  A    between atoms: _288  and  _289
REMARK  118  A    between atoms: _293  and  _295
REMARK  119  A    between atoms: _295  and  _296
REMARK  120  A    between atoms: _295  and  _298
REMARK  121  A    between atoms: _298  and  _299
REMARK  122  A    between atoms: _302  and  _304
REMARK  123  A    between atoms: _304  and  _305
REMARK  124  A    between atoms: _304  and  _307
REMARK  125  A    between atoms: _307  and  _308
REMARK  126  A    between atoms: _313  and  _315
REMARK  127  A    between atoms: _315  and  _316
REMARK  128  A    between atoms: _315  and  _318
REMARK  129  A    between atoms: _318  and  _319
REMARK  130  A    between atoms: _319  and  _320
REMARK  131  A    between atoms: _325  and  _327
REMARK  132  A    between atoms: _327  and  _328
REMARK  133  A    between atoms: _327  and  _330
REMARK  134  A    between atoms: _330  and  _331
REMARK  135  A    between atoms: _334  and  _336
REMARK  136  A    between atoms: _336  and  _337
REMARK  137  A    between atoms: _336  and  _339
REMARK  138  A    between atoms: _339  and  _340
REMARK  139  A    between atoms: _345  and  _346
REMARK  140  A    between atoms: _348  and  _350
REMARK  141  A    between atoms: _350  and  _351
REMARK  142  A    between atoms: _350  and  _353
REMARK  143  A    between atoms: _353  and  _354
REMARK  144  A    between atoms: _354  and  _355
REMARK  145  A    between atoms: _355  and  _356
REMARK  146  A    between atoms: _365  and  _367
REMARK  147  A    between atoms: _367  and  _368
REMARK  148  A    between atoms: _367  and  _370
REMARK  149  A    between atoms: _370  and  _371
REMARK  150  A    between atoms: _371  and  _372
REMARK  151  A    between atoms: _375  and  _377
REMARK  152  A    between atoms: _377  and  _378
REMARK  153  A    between atoms: _377  and  _380
REMARK  154  A    between atoms: _380  and  _381
REMARK  155  A    between atoms: _383  and  _385
REMARK  156  A    between atoms: _385  and  _386
REMARK  157  A    between atoms: _385  and  _388
REMARK  158  A    between atoms: _388  and  _389
REMARK  159  A    between atoms: _392  and  _394
REMARK  160  A    between atoms: _394  and  _395
REMARK  161  A    between atoms: _394  and  _397
REMARK  162  A    between atoms: _397  and  _398
REMARK  163  A    between atoms: _398  and  _399
REMARK  164  A    between atoms: _399  and  _400
REMARK  165  A    between atoms: _409  and  _411
REMARK  166  A    between atoms: _411  and  _412
REMARK  167  A    between atoms: _411  and  _414
REMARK  168  A    between atoms: _414  and  _415
REMARK  169  A    between atoms: _420  and  _422
REMARK  170  A    between atoms: _422  and  _423
REMARK  171  A    between atoms: _422  and  _425
REMARK  172  A    between atoms: _425  and  _426
REMARK  173  A    between atoms: _429  and  _431
REMARK  174  A    between atoms: _431  and  _432
REMARK  175  A    between atoms: _431  and  _434
REMARK  176  A    between atoms: _434  and  _435
REMARK  177  A    between atoms: _440  and  _441
REMARK  178  A    between atoms: _443  and  _445
REMARK  179  A    between atoms: _445  and  _446
REMARK  180  A    between atoms: _445  and  _448
REMARK  181  A    between atoms: _448  and  _449
REMARK  182  A    between atoms: _452  and  _454
REMARK  183  A    between atoms: _454  and  _455
REMARK  184  A    between atoms: _454  and  _457
REMARK  185  A    between atoms: _457  and  _458
REMARK  186  A    between atoms: _458  and  _459
REMARK  187  A    between atoms: _464  and  _466
REMARK  188  A    between atoms: _466  and  _467
REMARK  189  A    between atoms: _466  and  _469
REMARK  190  A    between atoms: _469  and  _470
REMARK  191  A    between atoms: _470  and  _471
REMARK  192  A    between atoms: _471  and  _472
REMARK  193  A    between atoms: _481  and  _483
REMARK  194  A    between atoms: _483  and  _484
REMARK  195  A    between atoms: _483  and  _486
REMARK  196  A    between atoms: _486  and  _487
REMARK  197  A    between atoms: _487  and  _488
REMARK  198  A    between atoms: _490  and  _492
REMARK  199  A    between atoms: _492  and  _493
REMARK  200  A    between atoms: _492  and  _495
REMARK  201  A    between atoms: _495  and  _496
REMARK  202  A    between atoms: _501  and  _502
REMARK  203  A    between atoms: _504  and  _506
REMARK  204  A    between atoms: _506  and  _507
REMARK  205  A    between atoms: _509  and  _511
REMARK  206  A    between atoms: _511  and  _512
REMARK  207  A    between atoms: _511  and  _514
REMARK  208  A    between atoms: _514  and  _515
REMARK  209  A    between atoms: _515  and  _869
REMARK  210  A    between atoms: _516  and  _518
REMARK  211  A    between atoms: _518  and  _519
REMARK  212  A    between atoms: _518  and  _521
REMARK  213  A    between atoms: _521  and  _522
REMARK  214  A    between atoms: _525  and  _527
REMARK  215  A    between atoms: _527  and  _528
REMARK  216  A    between atoms: _527  and  _530
REMARK  217  A    between atoms: _530  and  _531
REMARK  218  A    between atoms: _531  and  _532
REMARK  219  A    between atoms: _537  and  _539
REMARK  220  A    between atoms: _539  and  _540
REMARK  221  A    between atoms: _539  and  _542
REMARK  222  A    between atoms: _542  and  _543
REMARK  223  A    between atoms: _545  and  _547
REMARK  224  A    between atoms: _547  and  _548
REMARK  225  A    between atoms: _551  and  _553
REMARK  226  A    between atoms: _553  and  _554
REMARK  227  A    between atoms: _553  and  _556
REMARK  228  A    between atoms: _556  and  _557
REMARK  229  A    between atoms: _562  and  _563
REMARK  230  A    between atoms: _565  and  _567
REMARK  231  A    between atoms: _567  and  _568
REMARK  232  A    between atoms: _567  and  _570
REMARK  233  A    between atoms: _570  and  _571
REMARK  234  A    between atoms: _576  and  _577
REMARK  235  A    between atoms: _579  and  _581
REMARK  236  A    between atoms: _581  and  _582
REMARK  237  A    between atoms: _581  and  _584
REMARK  238  A    between atoms: _584  and  _585
REMARK  239  A    between atoms: _588  and  _590
REMARK  240  A    between atoms: _590  and  _591
REMARK  241  A    between atoms: _594  and  _596
REMARK  242  A    between atoms: _596  and  _597
REMARK  243  A    between atoms: _596  and  _599
REMARK  244  A    between atoms: _599  and  _600
REMARK  245  A    between atoms: _610  and  _612
REMARK  246  A    between atoms: _612  and  _613
REMARK  247  A    between atoms: _616  and  _618
REMARK  248  A    between atoms: _618  and  _619
REMARK  249  A    between atoms: _622  and  _624
REMARK  250  A    between atoms: _624  and  _625
REMARK  251  A    between atoms: _624  and  _627
REMARK  252  A    between atoms: _627  and  _628
REMARK  253  A    between atoms: _628  and  _629
REMARK  254  A    between atoms: _634  and  _636
REMARK  255  A    between atoms: _636  and  _637
REMARK  256  A    between atoms: _636  and  _639
REMARK  257  A    between atoms: _639  and  _640
REMARK  258  A    between atoms: _643  and  _645
REMARK  259  A    between atoms: _645  and  _646
REMARK  260  A    between atoms: _645  and  _648
REMARK  261  A    between atoms: _648  and  _649
REMARK  262  A    between atoms: _652  and  _654
REMARK  263  A    between atoms: _654  and  _655
REMARK  264  A    between atoms: _654  and  _657
REMARK  265  A    between atoms: _657  and  _658
REMARK  266  A    between atoms: _658  and  _659
REMARK  267  A    between atoms: _664  and  _666
REMARK  268  A    between atoms: _666  and  _667
REMARK  269  A    between atoms: _666  and  _669
REMARK  270  A    between atoms: _669  and  _670
REMARK  271  A    between atoms: _670  and  _671
REMARK  272  A    between atoms: _671  and  _672
REMARK  273  A    between atoms: _681  and  _683
REMARK  274  A    between atoms: _683  and  _684
REMARK  275  A    between atoms: _683  and  _686
REMARK  276  A    between atoms: _686  and  _687
REMARK  277  A    between atoms: _687  and  _688
REMARK  278  A    between atoms: _688  and  _689
REMARK  279  A    between atoms: _689  and  _690
REMARK  280  A    between atoms: _694  and  _696
REMARK  281  A    between atoms: _696  and  _697
REMARK  282  A    between atoms: _696  and  _699
REMARK  283  A    between atoms: _699  and  _700
REMARK  284  A    between atoms: _710  and  _712
REMARK  285  A    between atoms: _712  and  _713
REMARK  286  A    between atoms: _712  and  _715
REMARK  287  A    between atoms: _715  and  _716
REMARK  288  A    between atoms: _716  and  _717
REMARK  289  A    between atoms: _720  and  _722
REMARK  290  A    between atoms: _722  and  _723
REMARK  291  A    between atoms: _726  and  _728
REMARK  292  A    between atoms: _728  and  _729
REMARK  293  A    between atoms: _732  and  _734
REMARK  294  A    between atoms: _734  and  _735
REMARK  295  A    between atoms: _734  and  _737
REMARK  296  A    between atoms: _737  and  _738
REMARK  297  A    between atoms: _738  and  _739
REMARK  298  A    between atoms: _739  and  _740
REMARK  299  A    between atoms: _749  and  _751
REMARK  300  A    between atoms: _751  and  _752
REMARK  301  A    between atoms: _751  and  _754
REMARK  302  A    between atoms: _754  and  _755
REMARK  303  A    between atoms: _755  and  _756
REMARK  304  A    between atoms: _759  and  _761
REMARK  305  A    between atoms: _761  and  _762
REMARK  306  A    between atoms: _765  and  _767
REMARK  307  A    between atoms: _767  and  _768
REMARK  308  A    between atoms: _767  and  _770
REMARK  309  A    between atoms: _770  and  _771
REMARK  310  A    between atoms: _771  and  _772
REMARK  311  A    between atoms: _775  and  _777
REMARK  312  A    between atoms: _777  and  _778
REMARK  313  A    between atoms: _777  and  _780
REMARK  314  A    between atoms: _780  and  _781
REMARK  315  A    between atoms: _781  and  _782
REMARK  316  A    between atoms: _787  and  _789
REMARK  317  A    between atoms: _789  and  _790
REMARK  318  A    between atoms: _789  and  _792
REMARK  319  A    between atoms: _792  and  _793
REMARK  320  A    between atoms: _803  and  _805
REMARK  321  A    between atoms: _805  and  _806
REMARK  322  A    between atoms: _805  and  _808
REMARK  323  A    between atoms: _808  and  _809
REMARK  324  A    between atoms: _809  and  _810
REMARK  325  A    between atoms: _810  and  _811
REMARK  326  A    between atoms: _820  and  _822
REMARK  327  A    between atoms: _822  and  _823
REMARK  328  A    between atoms: _826  and  _828
REMARK  329  A    between atoms: _828  and  _829
REMARK  330  A    between atoms: _828  and  _831
REMARK  331  A    between atoms: _831  and  _832
REMARK  332  A    between atoms: _837  and  _838
REMARK  333  A    between atoms: _840  and  _842
REMARK  334  A    between atoms: _842  and  _843
REMARK  335  A    between atoms: _842  and  _845
REMARK  336  A    between atoms: _845  and  _846
REMARK  337  A    between atoms: _849  and  _851
REMARK  338  A    between atoms: _851  and  _852
REMARK  339  A    between atoms: _854  and  _856
REMARK  340  A    between atoms: _856  and  _857
REMARK  341  A    between atoms: _856  and  _859
REMARK  342  A    between atoms: _859  and  _860
REMARK  343  A    between atoms: _863  and  _865
REMARK  344  A    between atoms: _865  and  _866
REMARK  345  A    between atoms: _865  and  _868
REMARK  346  A    between atoms: _868  and  _869
REMARK  347  A    between atoms: _870  and  _872
REMARK  348  A    between atoms: _872  and  _873
REMARK  349  A    between atoms: _872  and  _875
REMARK  350  A    between atoms: _878  and  _880
REMARK  351  A    between atoms: _880  and  _881
REMARK  352  A    between atoms: _880  and  _883
REMARK  353  A    between atoms: _883  and  _884
REMARK  354  A    between atoms: _884  and  _885
REMARK  355  A    between atoms: _888  and  _890
REMARK  356  A    between atoms: _890  and  _891
REMARK  357  A    between atoms: _890  and  _893
REMARK  358  A    between atoms: _893  and  _894
REMARK  359  A    between atoms: _904  and  _906
REMARK  360  A    between atoms: _906  and  _907
REMARK  361  A    between atoms: _906  and  _909
REMARK  362  A    between atoms: _909  and  _910
REMARK  363  A    between atoms: _913  and  _915
REMARK  364  A    between atoms: _915  and  _916
REMARK  365  A    between atoms: _915  and  _918
REMARK  366  A    between atoms: _918  and  _919
REMARK  367  A    between atoms: _919  and  _920
REMARK  368  A    between atoms: _920  and  _921
REMARK  369  A    between atoms: _930  and  _932
REMARK  370  A    between atoms: _932  and  _933
REMARK  371  A    between atoms: _932  and  _935
REMARK  372  A    between atoms: _935  and  _936
REMARK  373  A    between atoms: _941  and  _942
REMARK  374  A    between atoms: _944  and  _946
REMARK  375  A    between atoms: _946  and  _947
REMARK  376  A    between atoms: _946  and  _949
REMARK  377  A    between atoms: _949  and  _950
REMARK                            x       y       z     vdW  Elec       q    Type
REMARK                         _______ _______ _______ _____ _____    ______ ____
ROOT
ATOM      1  CG  TRP A   1      23.966  27.871  18.110  0.00  0.00    -0.002 A 
ATOM      2  CD2 TRP A   1      23.825  27.492  19.477  0.00  0.00    +0.013 A 
ATOM      3  CE3 TRP A   1      23.342  28.148  20.631  0.00  0.00    +0.001 A 
ATOM      4  CZ3 TRP A   1      23.382  27.492  21.836  0.00  0.00    +0.000 A 
ATOM      5  CH2 TRP A   1      23.897  26.189  21.941  0.00  0.00    +0.001 A 
ATOM      6  CZ2 TRP A   1      24.379  25.518  20.841  0.00  0.00    +0.017 A 
ATOM      7  CE2 TRP A   1      24.319  26.175  19.607  0.00  0.00    +0.056 A 
ATOM      8  NE1 TRP A   1      24.738  25.774  18.369  0.00  0.00    -0.352 N 
ATOM      9  HE1 TRP A   1      25.155  24.848  18.145  0.00  0.00    +0.166 HD
ATOM     10  CD1 TRP A   1      24.520  26.791  17.466  0.00  0.00    +0.068 A 
ENDROOT
BRANCH   1  11
ATOM     11  CB  TRP A   1      23.551  29.205  17.502  0.00  0.00    +0.053 C 
BRANCH  11  12
ATOM     12  CA  TRP A   1      22.041  29.401  17.404  0.00  0.00    +0.137 C 
BRANCH  12  13
ATOM     13  N   TRP A   1      21.389  28.270  16.744  0.00  0.00    -0.239 NA
ATOM     14  H   TRP A   1      20.547  27.871  17.206  0.00  0.00    +0.142 HD
ENDBRANCH  12  13
BRANCH  12  15
ATOM     15  C   TRP A   1      21.740  30.778  16.817  0.00  0.00    +0.224 C 
ATOM     16  O   TRP A   1      22.135  31.801  17.385  0.00  0.00    -0.287 OA
ENDBRANCH  12  15
ENDBRANCH  11  12
ENDBRANCH   1  11
TORSDOF 4
REMARK  Name = ../refined-set-2016/1xr9/1xr9_pocket.pdb
REMARK  377 active torsions:
REMARK  status: ('A' for Active; 'I' for Inactive)
REMARK    1  A    between atoms: _1  and  _3
REMARK    2  A    between atoms: _3  and  _4
REMARK    3  A    between atoms: _3  and  _6
REMARK    4  A    between atoms: _6  and  _7
REMARK    5  A    between atoms: _7  and  _8
REMARK    6  A    between atoms: _10  and  _12
REMARK    7  A    between atoms: _12  and  _13
REMARK    8  A    between atoms: _12  and  _15
REMARK    9  A    between atoms: _15  and  _16
REMARK   10  A    between atoms: _16  and  _17
REMARK   11  A    between atoms: _17  and  _18
REMARK   12  A    between atoms: _27  and  _29
REMARK   13  A    between atoms: _29  and  _30
REMARK   14  A    between atoms: _29  and  _32
REMARK   15  A    between atoms: _32  and  _33
REMARK   16  A    between atoms: _38  and  _39
REMARK   17  A    between atoms: _41  and  _43
REMARK   18  A    between atoms: _43  and  _44
REMARK   19  A    between atoms: _43  and  _46
REMARK   20  A    between atoms: _46  and  _47
REMARK   21  A    between atoms: _53  and  _55
REMARK   22  A    between atoms: _55  and  _56
REMARK   23  A    between atoms: _55  and  _58
REMARK   24  A    between atoms: _58  and  _59
REMARK   25  A    between atoms: _64  and  _65
REMARK   26  A    between atoms: _67  and  _69
REMARK   27  A    between atoms: _69  and  _70
REMARK   28  A    between atoms: _69  and  _72
REMARK   29  A    between atoms: _72  and  _73
REMARK   30  A    between atoms: _79  and  _81
REMARK   31  A    between atoms: _81  and  _82
REMARK   32  A    between atoms: _85  and  _87
REMARK   33  A    between atoms: _87  and  _88
REMARK   34  A    between atoms: _87  and  _90
REMARK   35  A    between atoms: _93  and  _95
REMARK   36  A    between atoms: _95  and  _96
REMARK   37  A    between atoms: _98  and  _100
REMARK   38  A    between atoms: _100  and  _101
REMARK   39  A    between atoms: _100  and  _103
REMARK   40  A    between atoms: _106  and  _108
REMARK   41  A    between atoms: _108  and  _109
REMARK   42  A    between atoms: _108  and  _111
REMARK   43  A    between atoms: _111  and  _112
REMARK   44  A    between atoms: _118  and  _120
REMARK   45  A    between atoms: _120  and  _121
REMARK   46  A    between atoms: _120  and  _123
REMARK   47  A    between atoms: _126  and  _128
REMARK   48  A    between atoms: _128  and  _129
REMARK   49  A    between atoms: _128  and  _131
REMARK   50  A    between atoms: _131  and  _132
REMARK   51  A    between atoms: _138  and  _140
REMARK   52  A    between atoms: _140  and  _141
REMARK   53  A    between atoms: _140  and  _143
REMARK   54  A    between atoms: _143  and  _144
REMARK   55  A    between atoms: _144  and  _145
REMARK   56  A    between atoms: _147  and  _149
REMARK   57  A    between atoms: _149  and  _150
REMARK   58  A    between atoms: _149  and  _152
REMARK   59  A    between atoms: _152  and  _153
REMARK   60  A    between atoms: _156  and  _158
REMARK   61  A    between atoms: _158  and  _159
REMARK   62  A    between atoms: _158  and  _161
REMARK   63  A    between atoms: _161  and  _162
REMARK   64  A    between atoms: _162  and  _163
REMARK   65  A    between atoms: _166  and  _168
REMARK   66  A    between atoms: _168  and  _169
REMARK   67  A    between atoms: _168  and  _171
REMARK   68  A    between atoms: _171  and  _172
REMARK   69  A    between atoms: _172  and  _173
REMARK   70  A    between atoms: _176  and  _178
REMARK   71  A    between atoms: _178  and  _179
REMARK   72  A    between atoms: _178  and  _181
REMARK   73  A    between atoms: _181  and  _182
REMARK   74  A    between atoms: _187  and  _188
REMARK   75  A    between atoms: _190  and  _192
REMARK   76  A    between atoms: _192  and  _193
REMARK   77  A    between atoms: _192  and  _195
REMARK   78  A    between atoms: _195  and  _196
REMARK   79  A    between atoms: _206  and  _208
REMARK   80  A    between atoms: _208  and  _209
REMARK   81  A    between atoms: _208  and  _211
REMARK   82  A    between atoms: _211  and  _212
REMARK   83  A    between atoms: _215  and  _217
REMARK   84  A    between atoms: _217  and  _218
REMARK   85  A    between atoms: _217  and  _220
REMARK   86  A    between atoms: _220  and  _221
REMARK   87  A    between atoms: _221  and  _222
REMARK   88  A    between atoms: _222  and  _223
REMARK   89  A    between atoms: _232  and  _234
REMARK   90  A    between atoms: _234  and  _235
REMARK   91  A    between atoms: _234  and  _237
REMARK   92  A    between atoms: _237  and  _238
REMARK   93  A    between atoms: _238  and  _239
REMARK   94  A    between atoms: _242  and  _244
REMARK   95  A    between atoms: _244  and  _245
REMARK   96  A    between atoms: _244  and  _247
REMARK   97  A    between atoms: _247  and  _248
REMARK   98  A    between atoms: _251  and  _253
REMARK   99  A    between atoms: _253  and  _254
REMARK  100  A    between atoms: _253  and  _256
REMARK  101  A    between atoms: _256  and  _257
REMARK  102  A    between atoms: _257  and  _258
REMARK  103  A    between atoms: _263  and  _265
REMARK  104  A    between atoms: _265  and  _266
REMARK  105  A    between atoms: _265  and  _268
REMARK  106  A    between atoms: _268  and  _269
REMARK  107  A    between atoms: _272  and  _274
REMARK  108  A    between atoms: _274  and  _275
REMARK  109  A    between atoms: _274  and  _277
REMARK  110  A    between atoms: _277  and  _278
REMARK  111  A    between atoms: _280  and  _282
REMARK  112  A    between atoms: _282  and  _283
REMARK  113  A    between atoms: _282  and  _285
REMARK  114  A    between atoms: _285  and  _286
REMARK  115  A    between atoms: _286  and  _287
REMARK  116  A    between atoms: _287  and  _288
REMARK  117  A    between atoms: _288  and  _289
REMARK  118  A    between atoms: _293  and  _295
REMARK  119  A    between atoms: _295  and  _296
REMARK  120  A    between atoms: _295  and  _298
REMARK  121  A    between atoms: _298  and  _299
REMARK  122  A    between atoms: _302  and  _304
REMARK  123  A    between atoms: _304  and  _305
REMARK  124  A    between atoms: _304  and  _307
REMARK  125  A    between atoms: _307  and  _308
REMARK  126  A    between atoms: _313  and  _315
REMARK  127  A    between atoms: _315  and  _316
REMARK  128  A    between atoms: _315  and  _318
REMARK  129  A    between atoms: _318  and  _319
REMARK  130  A    between atoms: _319  and  _320
REMARK  131  A    between atoms: _325  and  _327
REMARK  132  A    between atoms: _327  and  _328
REMARK  133  A    between atoms: _327  and  _330
REMARK  134  A    between atoms: _330  and  _331
REMARK  135  A    between atoms: _334  and  _336
REMARK  136  A    between atoms: _336  and  _337
REMARK  137  A    between atoms: _336  and  _339
REMARK  138  A    between atoms: _339  and  _340
REMARK  139  A    between atoms: _345  and  _346
REMARK  140  A    between atoms: _348  and  _350
REMARK  141  A    between atoms: _350  and  _351
REMARK  142  A    between atoms: _350  and  _353
REMARK  143  A    between atoms: _353  and  _354
REMARK  144  A    between atoms: _354  and  _355
REMARK  145  A    between atoms: _355  and  _356
REMARK  146  A    between atoms: _365  and  _367
REMARK  147  A    between atoms: _367  and  _368
REMARK  148  A    between atoms: _367  and  _370
REMARK  149  A    between atoms: _370  and  _371
REMARK  150  A    between atoms: _371  and  _372
REMARK  151  A    between atoms: _375  and  _377
REMARK  152  A    between atoms: _377  and  _378
REMARK  153  A    between atoms: _377  and  _380
REMARK  154  A    between atoms: _380  and  _381
REMARK  155  A    between atoms: _383  and  _385
REMARK  156  A    between atoms: _385  and  _386
REMARK  157  A    between atoms: _385  and  _388
REMARK  158  A    between atoms: _388  and  _389
REMARK  159  A    between atoms: _392  and  _394
REMARK  160  A    between atoms: _394  and  _395
REMARK  161  A    between atoms: _394  and  _397
REMARK  162  A    between atoms: _397  and  _398
REMARK  163  A    between atoms: _398  and  _399
REMARK  164  A    between atoms: _399  and  _400
REMARK  165  A    between atoms: _409  and  _411
REMARK  166  A    between atoms: _411  and  _412
REMARK  167  A    between atoms: _411  and  _414
REMARK  168  A    between atoms: _414  and  _415
REMARK  169  A    between atoms: _420  and  _422
REMARK  170  A    between atoms: _422  and  _423
REMARK  171  A    between atoms: _422  and  _425
REMARK  172  A    between atoms: _425  and  _426
REMARK  173  A    between atoms: _429  and  _431
REMARK  174  A    between atoms: _431  and  _432
REMARK  175  A    between atoms: _431  and  _434
REMARK  176  A    between atoms: _434  and  _435
REMARK  177  A    between atoms: _440  and  _441
REMARK  178  A    between atoms: _443  and  _445
REMARK  179  A    between atoms: _445  and  _446
REMARK  180  A    between atoms: _445  and  _448
REMARK  181  A    between atoms: _448  and  _449
REMARK  182  A    between atoms: _452  and  _454
REMARK  183  A    between atoms: _454  and  _455
REMARK  184  A    between atoms: _454  and  _457
REMARK  185  A    between atoms: _457  and  _458
REMARK  186  A    between atoms: _458  and  _459
REMARK  187  A    between atoms: _464  and  _466
REMARK  188  A    between atoms: _466  and  _467
REMARK  189  A    between atoms: _466  and  _469
REMARK  190  A    between atoms: _469  and  _470
REMARK  191  A    between atoms: _470  and  _471
REMARK  192  A    between atoms: _471  and  _472
REMARK  193  A    between atoms: _481  and  _483
REMARK  194  A    between atoms: _483  and  _484
REMARK  195  A    between atoms: _483  and  _486
REMARK  196  A    between atoms: _486  and  _487
REMARK  197  A    between atoms: _487  and  _488
REMARK  198  A    between atoms: _490  and  _492
REMARK  199  A    between atoms: _492  and  _493
REMARK  200  A    between atoms: _492  and  _495
REMARK  201  A    between atoms: _495  and  _496
REMARK  202  A    between atoms: _501  and  _502
REMARK  203  A    between atoms: _504  and  _506
REMARK  204  A    between atoms: _506  and  _507
REMARK  205  A    between atoms: _509  and  _511
REMARK  206  A    between atoms: _511  and  _512
REMARK  207  A    between atoms: _511  and  _514
REMARK  208  A    between atoms: _514  and  _515
REMARK  209  A    between atoms: _515  and  _869
REMARK  210  A    between atoms: _516  and  _518
REMARK  211  A    between atoms: _518  and  _519
REMARK  212  A    between atoms: _518  and  _521
REMARK  213  A    between atoms: _521  and  _522
REMARK  214  A    between atoms: _525  and  _527
REMARK  215  A    between atoms: _527  and  _528
REMARK  216  A    between atoms: _527  and  _530
REMARK  217  A    between atoms: _530  and  _531
REMARK  218  A    between atoms: _531  and  _532
REMARK  219  A    between atoms: _537  and  _539
REMARK  220  A    between atoms: _539  and  _540
REMARK  221  A    between atoms: _539  and  _542
REMARK  222  A    between atoms: _542  and  _543
REMARK  223  A    between atoms: _545  and  _547
REMARK  224  A    between atoms: _547  and  _548
REMARK  225  A    between atoms: _551  and  _553
REMARK  226  A    between atoms: _553  and  _554
REMARK  227  A    between atoms: _553  and  _556
REMARK  228  A    between atoms: _556  and  _557
REMARK  229  A    between atoms: _562  and  _563
REMARK  230  A    between atoms: _565  and  _567
REMARK  231  A    between atoms: _567  and  _568
REMARK  232  A    between atoms: _567  and  _570
REMARK  233  A    between atoms: _570  and  _571
REMARK  234  A    between atoms: _576  and  _577
REMARK  235  A    between atoms: _579  and  _581
REMARK  236  A    between atoms: _581  and  _582
REMARK  237  A    between atoms: _581  and  _584
REMARK  238  A    between atoms: _584  and  _585
REMARK  239  A    between atoms: _588  and  _590
REMARK  240  A    between atoms: _590  and  _591
REMARK  241  A    between atoms: _594  and  _596
REMARK  242  A    between atoms: _596  and  _597
REMARK  243  A    between atoms: _596  and  _599
REMARK  244  A    between atoms: _599  and  _600
REMARK  245  A    between atoms: _610  and  _612
REMARK  246  A    between atoms: _612  and  _613
REMARK  247  A    between atoms: _616  and  _618
REMARK  248  A    between atoms: _618  and  _619
REMARK  249  A    between atoms: _622  and  _624
REMARK  250  A    between atoms: _624  and  _625
REMARK  251  A    between atoms: _624  and  _627
REMARK  252  A    between atoms: _627  and  _628
REMARK  253  A    between atoms: _628  and  _629
REMARK  254  A    between atoms: _634  and  _636
REMARK  255  A    between atoms: _636  and  _637
REMARK  256  A    between atoms: _636  and  _639
REMARK  257  A    between atoms: _639  and  _640
REMARK  258  A    between atoms: _643  and  _645
REMARK  259  A    between atoms: _645  and  _646
REMARK  260  A    between atoms: _645  and  _648
REMARK  261  A    between atoms: _648  and  _649
REMARK  262  A    between atoms: _652  and  _654
REMARK  263  A    between atoms: _654  and  _655
REMARK  264  A    between atoms: _654  and  _657
REMARK  265  A    between atoms: _657  and  _658
REMARK  266  A    between atoms: _658  and  _659
REMARK  267  A    between atoms: _664  and  _666
REMARK  268  A    between atoms: _666  and  _667
REMARK  269  A    between atoms: _666  and  _669
REMARK  270  A    between atoms: _669  and  _670
REMARK  271  A    between atoms: _670  and  _671
REMARK  272  A    between atoms: _671  and  _672
REMARK  273  A    between atoms: _681  and  _683
REMARK  274  A    between atoms: _683  and  _684
REMARK  275  A    between atoms: _683  and  _686
REMARK  276  A    between atoms: _686  and  _687
REMARK  277  A    between atoms: _687  and  _688
REMARK  278  A    between atoms: _688  and  _689
REMARK  279  A    between atoms: _689  and  _690
REMARK  280  A    between atoms: _694  and  _696
REMARK  281  A    between atoms: _696  and  _697
REMARK  282  A    between atoms: _696  and  _699
REMARK  283  A    between atoms: _699  and  _700
REMARK  284  A    between atoms: _710  and  _712
REMARK  285  A    between atoms: _712  and  _713
REMARK  286  A    between atoms: _712  and  _715
REMARK  287  A    between atoms: _715  and  _716
REMARK  288  A    between atoms: _716  and  _717
REMARK  289  A    between atoms: _720  and  _722
REMARK  290  A    between atoms: _722  and  _723
REMARK  291  A    between atoms: _726  and  _728
REMARK  292  A    between atoms: _728  and  _729
REMARK  293  A    between atoms: _732  and  _734
REMARK  294  A    between atoms: _734  and  _735
REMARK  295  A    between atoms: _734  and  _737
REMARK  296  A    between atoms: _737  and  _738
REMARK  297  A    between atoms: _738  and  _739
REMARK  298  A    between atoms: _739  and  _740
REMARK  299  A    between atoms: _749  and  _751
REMARK  300  A    between atoms: _751  and  _752
REMARK  301  A    between atoms: _751  and  _754
REMARK  302  A    between atoms: _754  and  _755
REMARK  303  A    between atoms: _755  and  _756
REMARK  304  A    between atoms: _759  and  _761
REMARK  305  A    between atoms: _761  and  _762
REMARK  306  A    between atoms: _765  and  _767
REMARK  307  A    between atoms: _767  and  _768
REMARK  308  A    between atoms: _767  and  _770
REMARK  309  A    between atoms: _770  and  _771
REMARK  310  A    between atoms: _771  and  _772
REMARK  311  A    between atoms: _775  and  _777
REMARK  312  A    between atoms: _777  and  _778
REMARK  313  A    between atoms: _777  and  _780
REMARK  314  A    between atoms: _780  and  _781
REMARK  315  A    between atoms: _781  and  _782
REMARK  316  A    between atoms: _787  and  _789
REMARK  317  A    between atoms: _789  and  _790
REMARK  318  A    between atoms: _789  and  _792
REMARK  319  A    between atoms: _792  and  _793
REMARK  320  A    between atoms: _803  and  _805
REMARK  321  A    between atoms: _805  and  _806
REMARK  322  A    between atoms: _805  and  _808
REMARK  323  A    between atoms: _808  and  _809
REMARK  324  A    between atoms: _809  and  _810
REMARK  325  A    between atoms: _810  and  _811
REMARK  326  A    between atoms: _820  and  _822
REMARK  327  A    between atoms: _822  and  _823
REMARK  328  A    between atoms: _826  and  _828
REMARK  329  A    between atoms: _828  and  _829
REMARK  330  A    between atoms: _828  and  _831
REMARK  331  A    between atoms: _831  and  _832
REMARK  332  A    between atoms: _837  and  _838
REMARK  333  A    between atoms: _840  and  _842
REMARK  334  A    between atoms: _842  and  _843
REMARK  335  A    between atoms: _842  and  _845
REMARK  336  A    between atoms: _845  and  _846
REMARK  337  A    between atoms: _849  and  _851
REMARK  338  A    between atoms: _851  and  _852
REMARK  339  A    between atoms: _854  and  _856
REMARK  340  A    between atoms: _856  and  _857
REMARK  341  A    between atoms: _856  and  _859
REMARK  342  A    between atoms: _859  and  _860
REMARK  343  A    between atoms: _863  and  _865
REMARK  344  A    between atoms: _865  and  _866
REMARK  345  A    between atoms: _865  and  _868
REMARK  346  A    between atoms: _868  and  _869
REMARK  347  A    between atoms: _870  and  _872
REMARK  348  A    between atoms: _872  and  _873
REMARK  349  A    between atoms: _872  and  _875
REMARK  350  A    between atoms: _878  and  _880
REMARK  351  A    between atoms: _880  and  _881
REMARK  352  A    between atoms: _880  and  _883
REMARK  353  A    between atoms: _883  and  _884
REMARK  354  A    between atoms: _884  and  _885
REMARK  355  A    between atoms: _888  and  _890
REMARK  356  A    between atoms: _890  and  _891
REMARK  357  A    between atoms: _890  and  _893
REMARK  358  A    between atoms: _893  and  _894
REMARK  359  A    between atoms: _904  and  _906
REMARK  360  A    between atoms: _906  and  _907
REMARK  361  A    between atoms: _906  and  _909
REMARK  362  A    between atoms: _909  and  _910
REMARK  363  A    between atoms: _913  and  _915
REMARK  364  A    between atoms: _915  and  _916
REMARK  365  A    between atoms: _915  and  _918
REMARK  366  A    between atoms: _918  and  _919
REMARK  367  A    between atoms: _919  and  _920
REMARK  368  A    between atoms: _920  and  _921
REMARK  369  A    between atoms: _930  and  _932
REMARK  370  A    between atoms: _932  and  _933
REMARK  371  A    between atoms: _932  and  _935
REMARK  372  A    between atoms: _935  and  _936
REMARK  373  A    between atoms: _941  and  _942
REMARK  374  A    between atoms: _944  and  _946
REMARK  375  A    between atoms: _946  and  _947
REMARK  376  A    between atoms: _946  and  _949
REMARK  377  A    between atoms: _949  and  _950
REMARK                            x       y       z     vdW  Elec       q    Type
REMARK                         _______ _______ _______ _____ _____    ______ ____
ROOT
ATOM      1  O   HOH     1      12.732  30.742  35.894  0.00  0.00    +0.000 OA
ENDROOT
TORSDOF 0
REMARK  Name = ../refined-set-2016/1xr9/1xr9_pocket.pdb
REMARK  377 active torsions:
REMARK  status: ('A' for Active; 'I' for Inactive)
REMARK    1  A    between atoms: _1  and  _3
REMARK    2  A    between atoms: _3  and  _4
REMARK    3  A    between atoms: _3  and  _6
REMARK    4  A    between atoms: _6  and  _7
REMARK    5  A    between atoms: _7  and  _8
REMARK    6  A    between atoms: _10  and  _12
REMARK    7  A    between atoms: _12  and  _13
REMARK    8  A    between atoms: _12  and  _15
REMARK    9  A    between atoms: _15  and  _16
REMARK   10  A    between atoms: _16  and  _17
REMARK   11  A    between atoms: _17  and  _18
REMARK   12  A    between atoms: _27  and  _29
REMARK   13  A    between atoms: _29  and  _30
REMARK   14  A    between atoms: _29  and  _32
REMARK   15  A    between atoms: _32  and  _33
REMARK   16  A    between atoms: _38  and  _39
REMARK   17  A    between atoms: _41  and  _43
REMARK   18  A    between atoms: _43  and  _44
REMARK   19  A    between atoms: _43  and  _46
REMARK   20  A    between atoms: _46  and  _47
REMARK   21  A    between atoms: _53  and  _55
REMARK   22  A    between atoms: _55  and  _56
REMARK   23  A    between atoms: _55  and  _58
REMARK   24  A    between atoms: _58  and  _59
REMARK   25  A    between atoms: _64  and  _65
REMARK   26  A    between atoms: _67  and  _69
REMARK   27  A    between atoms: _69  and  _70
REMARK   28  A    between atoms: _69  and  _72
REMARK   29  A    between atoms: _72  and  _73
REMARK   30  A    between atoms: _79  and  _81
REMARK   31  A    between atoms: _81  and  _82
REMARK   32  A    between atoms: _85  and  _87
REMARK   33  A    between atoms: _87  and  _88
REMARK   34  A    between atoms: _87  and  _90
REMARK   35  A    between atoms: _93  and  _95
REMARK   36  A    between atoms: _95  and  _96
REMARK   37  A    between atoms: _98  and  _100
REMARK   38  A    between atoms: _100  and  _101
REMARK   39  A    between atoms: _100  and  _103
REMARK   40  A    between atoms: _106  and  _108
REMARK   41  A    between atoms: _108  and  _109
REMARK   42  A    between atoms: _108  and  _111
REMARK   43  A    between atoms: _111  and  _112
REMARK   44  A    between atoms: _118  and  _120
REMARK   45  A    between atoms: _120  and  _121
REMARK   46  A    between atoms: _120  and  _123
REMARK   47  A    between atoms: _126  and  _128
REMARK   48  A    between atoms: _128  and  _129
REMARK   49  A    between atoms: _128  and  _131
REMARK   50  A    between atoms: _131  and  _132
REMARK   51  A    between atoms: _138  and  _140
REMARK   52  A    between atoms: _140  and  _141
REMARK   53  A    between atoms: _140  and  _143
REMARK   54  A    between atoms: _143  and  _144
REMARK   55  A    between atoms: _144  and  _145
REMARK   56  A    between atoms: _147  and  _149
REMARK   57  A    between atoms: _149  and  _150
REMARK   58  A    between atoms: _149  and  _152
REMARK   59  A    between atoms: _152  and  _153
REMARK   60  A    between atoms: _156  and  _158
REMARK   61  A    between atoms: _158  and  _159
REMARK   62  A    between atoms: _158  and  _161
REMARK   63  A    between atoms: _161  and  _162
REMARK   64  A    between atoms: _162  and  _163
REMARK   65  A    between atoms: _166  and  _168
REMARK   66  A    between atoms: _168  and  _169
REMARK   67  A    between atoms: _168  and  _171
REMARK   68  A    between atoms: _171  and  _172
REMARK   69  A    between atoms: _172  and  _173
REMARK   70  A    between atoms: _176  and  _178
REMARK   71  A    between atoms: _178  and  _179
REMARK   72  A    between atoms: _178  and  _181
REMARK   73  A    between atoms: _181  and  _182
REMARK   74  A    between atoms: _187  and  _188
REMARK   75  A    between atoms: _190  and  _192
REMARK   76  A    between atoms: _192  and  _193
REMARK   77  A    between atoms: _192  and  _195
REMARK   78  A    between atoms: _195  and  _196
REMARK   79  A    between atoms: _206  and  _208
REMARK   80  A    between atoms: _208  and  _209
REMARK   81  A    between atoms: _208  and  _211
REMARK   82  A    between atoms: _211  and  _212
REMARK   83  A    between atoms: _215  and  _217
REMARK   84  A    between atoms: _217  and  _218
REMARK   85  A    between atoms: _217  and  _220
REMARK   86  A    between atoms: _220  and  _221
REMARK   87  A    between atoms: _221  and  _222
REMARK   88  A    between atoms: _222  and  _223
REMARK   89  A    between atoms: _232  and  _234
REMARK   90  A    between atoms: _234  and  _235
REMARK   91  A    between atoms: _234  and  _237
REMARK   92  A    between atoms: _237  and  _238
REMARK   93  A    between atoms: _238  and  _239
REMARK   94  A    between atoms: _242  and  _244
REMARK   95  A    between atoms: _244  and  _245
REMARK   96  A    between atoms: _244  and  _247
REMARK   97  A    between atoms: _247  and  _248
REMARK   98  A    between atoms: _251  and  _253
REMARK   99  A    between atoms: _253  and  _254
REMARK  100  A    between atoms: _253  and  _256
REMARK  101  A    between atoms: _256  and  _257
REMARK  102  A    between atoms: _257  and  _258
REMARK  103  A    between atoms: _263  and  _265
REMARK  104  A    between atoms: _265  and  _266
REMARK  105  A    between atoms: _265  and  _268
REMARK  106  A    between atoms: _268  and  _269
REMARK  107  A    between atoms: _272  and  _274
REMARK  108  A    between atoms: _274  and  _275
REMARK  109  A    between atoms: _274  and  _277
REMARK  110  A    between atoms: _277  and  _278
REMARK  111  A    between atoms: _280  and  _282
REMARK  112  A    between atoms: _282  and  _283
REMARK  113  A    between atoms: _282  and  _285
REMARK  114  A    between atoms: _285  and  _286
REMARK  115  A    between atoms: _286  and  _287
REMARK  116  A    between atoms: _287  and  _288
REMARK  117  A    between atoms: _288  and  _289
REMARK  118  A    between atoms: _293  and  _295
REMARK  119  A    between atoms: _295  and  _296
REMARK  120  A    between atoms: _295  and  _298
REMARK  121  A    between atoms: _298  and  _299
REMARK  122  A    between atoms: _302  and  _304
REMARK  123  A    between atoms: _304  and  _305
REMARK  124  A    between atoms: _304  and  _307
REMARK  125  A    between atoms: _307  and  _308
REMARK  126  A    between atoms: _313  and  _315
REMARK  127  A    between atoms: _315  and  _316
REMARK  128  A    between atoms: _315  and  _318
REMARK  129  A    between atoms: _318  and  _319
REMARK  130  A    between atoms: _319  and  _320
REMARK  131  A    between atoms: _325  and  _327
REMARK  132  A    between atoms: _327  and  _328
REMARK  133  A    between atoms: _327  and  _330
REMARK  134  A    between atoms: _330  and  _331
REMARK  135  A    between atoms: _334  and  _336
REMARK  136  A    between atoms: _336  and  _337
REMARK  137  A    between atoms: _336  and  _339
REMARK  138  A    between atoms: _339  and  _340
REMARK  139  A    between atoms: _345  and  _346
REMARK  140  A    between atoms: _348  and  _350
REMARK  141  A    between atoms: _350  and  _351
REMARK  142  A    between atoms: _350  and  _353
REMARK  143  A    between atoms: _353  and  _354
REMARK  144  A    between atoms: _354  and  _355
REMARK  145  A    between atoms: _355  and  _356
REMARK  146  A    between atoms: _365  and  _367
REMARK  147  A    between atoms: _367  and  _368
REMARK  148  A    between atoms: _367  and  _370
REMARK  149  A    between atoms: _370  and  _371
REMARK  150  A    between atoms: _371  and  _372
REMARK  151  A    between atoms: _375  and  _377
REMARK  152  A    between atoms: _377  and  _378
REMARK  153  A    between atoms: _377  and  _380
REMARK  154  A    between atoms: _380  and  _381
REMARK  155  A    between atoms: _383  and  _385
REMARK  156  A    between atoms: _385  and  _386
REMARK  157  A    between atoms: _385  and  _388
REMARK  158  A    between atoms: _388  and  _389
REMARK  159  A    between atoms: _392  and  _394
REMARK  160  A    between atoms: _394  and  _395
REMARK  161  A    between atoms: _394  and  _397
REMARK  162  A    between atoms: _397  and  _398
REMARK  163  A    between atoms: _398  and  _399
REMARK  164  A    between atoms: _399  and  _400
REMARK  165  A    between atoms: _409  and  _411
REMARK  166  A    between atoms: _411  and  _412
REMARK  167  A    between atoms: _411  and  _414
REMARK  168  A    between atoms: _414  and  _415
REMARK  169  A    between atoms: _420  and  _422
REMARK  170  A    between atoms: _422  and  _423
REMARK  171  A    between atoms: _422  and  _425
REMARK  172  A    between atoms: _425  and  _426
REMARK  173  A    between atoms: _429  and  _431
REMARK  174  A    between atoms: _431  and  _432
REMARK  175  A    between atoms: _431  and  _434
REMARK  176  A    between atoms: _434  and  _435
REMARK  177  A    between atoms: _440  and  _441
REMARK  178  A    between atoms: _443  and  _445
REMARK  179  A    between atoms: _445  and  _446
REMARK  180  A    between atoms: _445  and  _448
REMARK  181  A    between atoms: _448  and  _449
REMARK  182  A    between atoms: _452  and  _454
REMARK  183  A    between atoms: _454  and  _455
REMARK  184  A    between atoms: _454  and  _457
REMARK  185  A    between atoms: _457  and  _458
REMARK  186  A    between atoms: _458  and  _459
REMARK  187  A    between atoms: _464  and  _466
REMARK  188  A    between atoms: _466  and  _467
REMARK  189  A    between atoms: _466  and  _469
REMARK  190  A    between atoms: _469  and  _470
REMARK  191  A    between atoms: _470  and  _471
REMARK  192  A    between atoms: _471  and  _472
REMARK  193  A    between atoms: _481  and  _483
REMARK  194  A    between atoms: _483  and  _484
REMARK  195  A    between atoms: _483  and  _486
REMARK  196  A    between atoms: _486  and  _487
REMARK  197  A    between atoms: _487  and  _488
REMARK  198  A    between atoms: _490  and  _492
REMARK  199  A    between atoms: _492  and  _493
REMARK  200  A    between atoms: _492  and  _495
REMARK  201  A    between atoms: _495  and  _496
REMARK  202  A    between atoms: _501  and  _502
REMARK  203  A    between atoms: _504  and  _506
REMARK  204  A    between atoms: _506  and  _507
REMARK  205  A    between atoms: _509  and  _511
REMARK  206  A    between atoms: _511  and  _512
REMARK  207  A    between atoms: _511  and  _514
REMARK  208  A    between atoms: _514  and  _515
REMARK  209  A    between atoms: _515  and  _869
REMARK  210  A    between atoms: _516  and  _518
REMARK  211  A    between atoms: _518  and  _519
REMARK  212  A    between atoms: _518  and  _521
REMARK  213  A    between atoms: _521  and  _522
REMARK  214  A    between atoms: _525  and  _527
REMARK  215  A    between atoms: _527  and  _528
REMARK  216  A    between atoms: _527  and  _530
REMARK  217  A    between atoms: _530  and  _531
REMARK  218  A    between atoms: _531  and  _532
REMARK  219  A    between atoms: _537  and  _539
REMARK  220  A    between atoms: _539  and  _540
REMARK  221  A    between atoms: _539  and  _542
REMARK  222  A    between atoms: _542  and  _543
REMARK  223  A    between atoms: _545  and  _547
REMARK  224  A    between atoms: _547  and  _548
REMARK  225  A    between atoms: _551  and  _553
REMARK  226  A    between atoms: _553  and  _554
REMARK  227  A    between atoms: _553  and  _556
REMARK  228  A    between atoms: _556  and  _557
REMARK  229  A    between atoms: _562  and  _563
REMARK  230  A    between atoms: _565  and  _567
REMARK  231  A    between atoms: _567  and  _568
REMARK  232  A    between atoms: _567  and  _570
REMARK  233  A    between atoms: _570  and  _571
REMARK  234  A    between atoms: _576  and  _577
REMARK  235  A    between atoms: _579  and  _581
REMARK  236  A    between atoms: _581  and  _582
REMARK  237  A    between atoms: _581  and  _584
REMARK  238  A    between atoms: _584  and  _585
REMARK  239  A    between atoms: _588  and  _590
REMARK  240  A    between atoms: _590  and  _591
REMARK  241  A    between atoms: _594  and  _596
REMARK  242  A    between atoms: _596  and  _597
REMARK  243  A    between atoms: _596  and  _599
REMARK  244  A    between atoms: _599  and  _600
REMARK  245  A    between atoms: _610  and  _612
REMARK  246  A    between atoms: _612  and  _613
REMARK  247  A    between atoms: _616  and  _618
REMARK  248  A    between atoms: _618  and  _619
REMARK  249  A    between atoms: _622  and  _624
REMARK  250  A    between atoms: _624  and  _625
REMARK  251  A    between atoms: _624  and  _627
REMARK  252  A    between atoms: _627  and  _628
REMARK  253  A    between atoms: _628  and  _629
REMARK  254  A    between atoms: _634  and  _636
REMARK  255  A    between atoms: _636  and  _637
REMARK  256  A    between atoms: _636  and  _639
REMARK  257  A    between atoms: _639  and  _640
REMARK  258  A    between atoms: _643  and  _645
REMARK  259  A    between atoms: _645  and  _646
REMARK  260  A    between atoms: _645  and  _648
REMARK  261  A    between atoms: _648  and  _649
REMARK  262  A    between atoms: _652  and  _654
REMARK  263  A    between atoms: _654  and  _655
REMARK  264  A    between atoms: _654  and  _657
REMARK  265  A    between atoms: _657  and  _658
REMARK  266  A    between atoms: _658  and  _659
REMARK  267  A    between atoms: _664  and  _666
REMARK  268  A    between atoms: _666  and  _667
REMARK  269  A    between atoms: _666  and  _669
REMARK  270  A    between atoms: _669  and  _670
REMARK  271  A    between atoms: _670  and  _671
REMARK  272  A    between atoms: _671  and  _672
REMARK  273  A    between atoms: _681  and  _683
REMARK  274  A    between atoms: _683  and  _684
REMARK  275  A    between atoms: _683  and  _686
REMARK  276  A    between atoms: _686  and  _687
REMARK  277  A    between atoms: _687  and  _688
REMARK  278  A    between atoms: _688  and  _689
REMARK  279  A    between atoms: _689  and  _690
REMARK  280  A    between atoms: _694  and  _696
REMARK  281  A    between atoms: _696  and  _697
REMARK  282  A    between atoms: _696  and  _699
REMARK  283  A    between atoms: _699  and  _700
REMARK  284  A    between atoms: _710  and  _712
REMARK  285  A    between atoms: _712  and  _713
REMARK  286  A    between atoms: _712  and  _715
REMARK  287  A    between atoms: _715  and  _716
REMARK  288  A    between atoms: _716  and  _717
REMARK  289  A    between atoms: _720  and  _722
REMARK  290  A    between atoms: _722  and  _723
REMARK  291  A    between atoms: _726  and  _728
REMARK  292  A    between atoms: _728  and  _729
REMARK  293  A    between atoms: _732  and  _734
REMARK  294  A    between atoms: _734  and  _735
REMARK  295  A    between atoms: _734  and  _737
REMARK  296  A    between atoms: _737  and  _738
REMARK  297  A    between atoms: _738  and  _739
REMARK  298  A    between atoms: _739  and  _740
REMARK  299  A    between atoms: _749  and  _751
REMARK  300  A    between atoms: _751  and  _752
REMARK  301  A    between atoms: _751  and  _754
REMARK  302  A    between atoms: _754  and  _755
REMARK  303  A    between atoms: _755  and  _756
REMARK  304  A    between atoms: _759  and  _761
REMARK  305  A    between atoms: _761  and  _762
REMARK  306  A    between atoms: _765  and  _767
REMARK  307  A    between atoms: _767  and  _768
REMARK  308  A    between atoms: _767  and  _770
REMARK  309  A    between atoms: _770  and  _771
REMARK  310  A    between atoms: _771  and  _772
REMARK  311  A    between atoms: _775  and  _777
REMARK  312  A    between atoms: _777  and  _778
REMARK  313  A    between atoms: _777  and  _780
REMARK  314  A    between atoms: _780  and  _781
REMARK  315  A    between atoms: _781  and  _782
REMARK  316  A    between atoms: _787  and  _789
REMARK  317  A    between atoms: _789  and  _790
REMARK  318  A    between atoms: _789  and  _792
REMARK  319  A    between atoms: _792  and  _793
REMARK  320  A    between atoms: _803  and  _805
REMARK  321  A    between atoms: _805  and  _806
REMARK  322  A    between atoms: _805  and  _808
REMARK  323  A    between atoms: _808  and  _809
REMARK  324  A    between atoms: _809  and  _810
REMARK  325  A    between atoms: _810  and  _811
REMARK  326  A    between atoms: _820  and  _822
REMARK  327  A    between atoms: _822  and  _823
REMARK  328  A    between atoms: _826  and  _828
REMARK  329  A    between atoms: _828  and  _829
REMARK  330  A    between atoms: _828  and  _831
REMARK  331  A    between atoms: _831  and  _832
REMARK  332  A    between atoms: _837  and  _838
REMARK  333  A    between atoms: _840  and  _842
REMARK  334  A    between atoms: _842  and  _843
REMARK  335  A    between atoms: _842  and  _845
REMARK  336  A    between atoms: _845  and  _846
REMARK  337  A    between atoms: _849  and  _851
REMARK  338  A    between atoms: _851  and  _852
REMARK  339  A    between atoms: _854  and  _856
REMARK  340  A    between atoms: _856  and  _857
REMARK  341  A    between atoms: _856  and  _859
REMARK  342  A    between atoms: _859  and  _860
REMARK  343  A    between atoms: _863  and  _865
REMARK  344  A    between atoms: _865  and  _866
REMARK  345  A    between atoms: _865  and  _868
REMARK  346  A    between atoms: _868  and  _869
REMARK  347  A    between atoms: _870  and  _872
REMARK  348  A    between atoms: _872  and  _873
REMARK  349  A    between atoms: _872  and  _875
REMARK  350  A    between atoms: _878  and  _880
REMARK  351  A    between atoms: _880  and  _881
REMARK  352  A    between atoms: _880  and  _883
REMARK  353  A    between atoms: _883  and  _884
REMARK  354  A    between atoms: _884  and  _885
REMARK  355  A    between atoms: _888  and  _890
REMARK  356  A    between atoms: _890  and  _891
REMARK  357  A    between atoms: _890  and  _893
REMARK  358  A    between atoms: _893  and  _894
REMARK  359  A    between atoms: _904  and  _906
REMARK  360  A    between atoms: _906  and  _907
REMARK  361  A    between atoms: _906  and  _909
REMARK  362  A    between atoms: _909  and  _910
REMARK  363  A    between atoms: _913  and  _915
REMARK  364  A    between atoms: _915  and  _916
REMARK  365  A    between atoms: _915  and  _918
REMARK  366  A    between atoms: _918  and  _919
REMARK  367  A    between atoms: _919  and  _920
REMARK  368  A    between atoms: _920  and  _921
REMARK  369  A    between atoms: _930  and  _932
REMARK  370  A    between atoms: _932  and  _933
REMARK  371  A    between atoms: _932  and  _935
REMARK  372  A    between atoms: _935  and  _936
REMARK  373  A    between atoms: _941  and  _942
REMARK  374  A    between atoms: _944  and  _946
REMARK  375  A    between atoms: _946  and  _947
REMARK  376  A    between atoms: _946  and  _949
REMARK  377  A    between atoms: _949  and  _950
REMARK                            x       y       z     vdW  Elec       q    Type
REMARK                         _______ _______ _______ _____ _____    ______ ____
ROOT
ATOM      1  O   HOH     1      22.229  28.749  35.352  0.00  0.00    +0.000 OA
ENDROOT
TORSDOF 0
REMARK  Name = ../refined-set-2016/1xr9/1xr9_pocket.pdb
REMARK  377 active torsions:
REMARK  status: ('A' for Active; 'I' for Inactive)
REMARK    1  A    between atoms: _1  and  _3
REMARK    2  A    between atoms: _3  and  _4
REMARK    3  A    between atoms: _3  and  _6
REMARK    4  A    between atoms: _6  and  _7
REMARK    5  A    between atoms: _7  and  _8
REMARK    6  A    between atoms: _10  and  _12
REMARK    7  A    between atoms: _12  and  _13
REMARK    8  A    between atoms: _12  and  _15
REMARK    9  A    between atoms: _15  and  _16
REMARK   10  A    between atoms: _16  and  _17
REMARK   11  A    between atoms: _17  and  _18
REMARK   12  A    between atoms: _27  and  _29
REMARK   13  A    between atoms: _29  and  _30
REMARK   14  A    between atoms: _29  and  _32
REMARK   15  A    between atoms: _32  and  _33
REMARK   16  A    between atoms: _38  and  _39
REMARK   17  A    between atoms: _41  and  _43
REMARK   18  A    between atoms: _43  and  _44
REMARK   19  A    between atoms: _43  and  _46
REMARK   20  A    between atoms: _46  and  _47
REMARK   21  A    between atoms: _53  and  _55
REMARK   22  A    between atoms: _55  and  _56
REMARK   23  A    between atoms: _55  and  _58
REMARK   24  A    between atoms: _58  and  _59
REMARK   25  A    between atoms: _64  and  _65
REMARK   26  A    between atoms: _67  and  _69
REMARK   27  A    between atoms: _69  and  _70
REMARK   28  A    between atoms: _69  and  _72
REMARK   29  A    between atoms: _72  and  _73
REMARK   30  A    between atoms: _79  and  _81
REMARK   31  A    between atoms: _81  and  _82
REMARK   32  A    between atoms: _85  and  _87
REMARK   33  A    between atoms: _87  and  _88
REMARK   34  A    between atoms: _87  and  _90
REMARK   35  A    between atoms: _93  and  _95
REMARK   36  A    between atoms: _95  and  _96
REMARK   37  A    between atoms: _98  and  _100
REMARK   38  A    between atoms: _100  and  _101
REMARK   39  A    between atoms: _100  and  _103
REMARK   40  A    between atoms: _106  and  _108
REMARK   41  A    between atoms: _108  and  _109
REMARK   42  A    between atoms: _108  and  _111
REMARK   43  A    between atoms: _111  and  _112
REMARK   44  A    between atoms: _118  and  _120
REMARK   45  A    between atoms: _120  and  _121
REMARK   46  A    between atoms: _120  and  _123
REMARK   47  A    between atoms: _126  and  _128
REMARK   48  A    between atoms: _128  and  _129
REMARK   49  A    between atoms: _128  and  _131
REMARK   50  A    between atoms: _131  and  _132
REMARK   51  A    between atoms: _138  and  _140
REMARK   52  A    between atoms: _140  and  _141
REMARK   53  A    between atoms: _140  and  _143
REMARK   54  A    between atoms: _143  and  _144
REMARK   55  A    between atoms: _144  and  _145
REMARK   56  A    between atoms: _147  and  _149
REMARK   57  A    between atoms: _149  and  _150
REMARK   58  A    between atoms: _149  and  _152
REMARK   59  A    between atoms: _152  and  _153
REMARK   60  A    between atoms: _156  and  _158
REMARK   61  A    between atoms: _158  and  _159
REMARK   62  A    between atoms: _158  and  _161
REMARK   63  A    between atoms: _161  and  _162
REMARK   64  A    between atoms: _162  and  _163
REMARK   65  A    between atoms: _166  and  _168
REMARK   66  A    between atoms: _168  and  _169
REMARK   67  A    between atoms: _168  and  _171
REMARK   68  A    between atoms: _171  and  _172
REMARK   69  A    between atoms: _172  and  _173
REMARK   70  A    between atoms: _176  and  _178
REMARK   71  A    between atoms: _178  and  _179
REMARK   72  A    between atoms: _178  and  _181
REMARK   73  A    between atoms: _181  and  _182
REMARK   74  A    between atoms: _187  and  _188
REMARK   75  A    between atoms: _190  and  _192
REMARK   76  A    between atoms: _192  and  _193
REMARK   77  A    between atoms: _192  and  _195
REMARK   78  A    between atoms: _195  and  _196
REMARK   79  A    between atoms: _206  and  _208
REMARK   80  A    between atoms: _208  and  _209
REMARK   81  A    between atoms: _208  and  _211
REMARK   82  A    between atoms: _211  and  _212
REMARK   83  A    between atoms: _215  and  _217
REMARK   84  A    between atoms: _217  and  _218
REMARK   85  A    between atoms: _217  and  _220
REMARK   86  A    between atoms: _220  and  _221
REMARK   87  A    between atoms: _221  and  _222
REMARK   88  A    between atoms: _222  and  _223
REMARK   89  A    between atoms: _232  and  _234
REMARK   90  A    between atoms: _234  and  _235
REMARK   91  A    between atoms: _234  and  _237
REMARK   92  A    between atoms: _237  and  _238
REMARK   93  A    between atoms: _238  and  _239
REMARK   94  A    between atoms: _242  and  _244
REMARK   95  A    between atoms: _244  and  _245
REMARK   96  A    between atoms: _244  and  _247
REMARK   97  A    between atoms: _247  and  _248
REMARK   98  A    between atoms: _251  and  _253
REMARK   99  A    between atoms: _253  and  _254
REMARK  100  A    between atoms: _253  and  _256
REMARK  101  A    between atoms: _256  and  _257
REMARK  102  A    between atoms: _257  and  _258
REMARK  103  A    between atoms: _263  and  _265
REMARK  104  A    between atoms: _265  and  _266
REMARK  105  A    between atoms: _265  and  _268
REMARK  106  A    between atoms: _268  and  _269
REMARK  107  A    between atoms: _272  and  _274
REMARK  108  A    between atoms: _274  and  _275
REMARK  109  A    between atoms: _274  and  _277
REMARK  110  A    between atoms: _277  and  _278
REMARK  111  A    between atoms: _280  and  _282
REMARK  112  A    between atoms: _282  and  _283
REMARK  113  A    between atoms: _282  and  _285
REMARK  114  A    between atoms: _285  and  _286
REMARK  115  A    between atoms: _286  and  _287
REMARK  116  A    between atoms: _287  and  _288
REMARK  117  A    between atoms: _288  and  _289
REMARK  118  A    between atoms: _293  and  _295
REMARK  119  A    between atoms: _295  and  _296
REMARK  120  A    between atoms: _295  and  _298
REMARK  121  A    between atoms: _298  and  _299
REMARK  122  A    between atoms: _302  and  _304
REMARK  123  A    between atoms: _304  and  _305
REMARK  124  A    between atoms: _304  and  _307
REMARK  125  A    between atoms: _307  and  _308
REMARK  126  A    between atoms: _313  and  _315
REMARK  127  A    between atoms: _315  and  _316
REMARK  128  A    between atoms: _315  and  _318
REMARK  129  A    between atoms: _318  and  _319
REMARK  130  A    between atoms: _319  and  _320
REMARK  131  A    between atoms: _325  and  _327
REMARK  132  A    between atoms: _327  and  _328
REMARK  133  A    between atoms: _327  and  _330
REMARK  134  A    between atoms: _330  and  _331
REMARK  135  A    between atoms: _334  and  _336
REMARK  136  A    between atoms: _336  and  _337
REMARK  137  A    between atoms: _336  and  _339
REMARK  138  A    between atoms: _339  and  _340
REMARK  139  A    between atoms: _345  and  _346
REMARK  140  A    between atoms: _348  and  _350
REMARK  141  A    between atoms: _350  and  _351
REMARK  142  A    between atoms: _350  and  _353
REMARK  143  A    between atoms: _353  and  _354
REMARK  144  A    between atoms: _354  and  _355
REMARK  145  A    between atoms: _355  and  _356
REMARK  146  A    between atoms: _365  and  _367
REMARK  147  A    between atoms: _367  and  _368
REMARK  148  A    between atoms: _367  and  _370
REMARK  149  A    between atoms: _370  and  _371
REMARK  150  A    between atoms: _371  and  _372
REMARK  151  A    between atoms: _375  and  _377
REMARK  152  A    between atoms: _377  and  _378
REMARK  153  A    between atoms: _377  and  _380
REMARK  154  A    between atoms: _380  and  _381
REMARK  155  A    between atoms: _383  and  _385
REMARK  156  A    between atoms: _385  and  _386
REMARK  157  A    between atoms: _385  and  _388
REMARK  158  A    between atoms: _388  and  _389
REMARK  159  A    between atoms: _392  and  _394
REMARK  160  A    between atoms: _394  and  _395
REMARK  161  A    between atoms: _394  and  _397
REMARK  162  A    between atoms: _397  and  _398
REMARK  163  A    between atoms: _398  and  _399
REMARK  164  A    between atoms: _399  and  _400
REMARK  165  A    between atoms: _409  and  _411
REMARK  166  A    between atoms: _411  and  _412
REMARK  167  A    between atoms: _411  and  _414
REMARK  168  A    between atoms: _414  and  _415
REMARK  169  A    between atoms: _420  and  _422
REMARK  170  A    between atoms: _422  and  _423
REMARK  171  A    between atoms: _422  and  _425
REMARK  172  A    between atoms: _425  and  _426
REMARK  173  A    between atoms: _429  and  _431
REMARK  174  A    between atoms: _431  and  _432
REMARK  175  A    between atoms: _431  and  _434
REMARK  176  A    between atoms: _434  and  _435
REMARK  177  A    between atoms: _440  and  _441
REMARK  178  A    between atoms: _443  and  _445
REMARK  179  A    between atoms: _445  and  _446
REMARK  180  A    between atoms: _445  and  _448
REMARK  181  A    between atoms: _448  and  _449
REMARK  182  A    between atoms: _452  and  _454
REMARK  183  A    between atoms: _454  and  _455
REMARK  184  A    between atoms: _454  and  _457
REMARK  185  A    between atoms: _457  and  _458
REMARK  186  A    between atoms: _458  and  _459
REMARK  187  A    between atoms: _464  and  _466
REMARK  188  A    between atoms: _466  and  _467
REMARK  189  A    between atoms: _466  and  _469
REMARK  190  A    between atoms: _469  and  _470
REMARK  191  A    between atoms: _470  and  _471
REMARK  192  A    between atoms: _471  and  _472
REMARK  193  A    between atoms: _481  and  _483
REMARK  194  A    between atoms: _483  and  _484
REMARK  195  A    between atoms: _483  and  _486
REMARK  196  A    between atoms: _486  and  _487
REMARK  197  A    between atoms: _487  and  _488
REMARK  198  A    between atoms: _490  and  _492
REMARK  199  A    between atoms: _492  and  _493
REMARK  200  A    between atoms: _492  and  _495
REMARK  201  A    between atoms: _495  and  _496
REMARK  202  A    between atoms: _501  and  _502
REMARK  203  A    between atoms: _504  and  _506
REMARK  204  A    between atoms: _506  and  _507
REMARK  205  A    between atoms: _509  and  _511
REMARK  206  A    between atoms: _511  and  _512
REMARK  207  A    between atoms: _511  and  _514
REMARK  208  A    between atoms: _514  and  _515
REMARK  209  A    between atoms: _515  and  _869
REMARK  210  A    between atoms: _516  and  _518
REMARK  211  A    between atoms: _518  and  _519
REMARK  212  A    between atoms: _518  and  _521
REMARK  213  A    between atoms: _521  and  _522
REMARK  214  A    between atoms: _525  and  _527
REMARK  215  A    between atoms: _527  and  _528
REMARK  216  A    between atoms: _527  and  _530
REMARK  217  A    between atoms: _530  and  _531
REMARK  218  A    between atoms: _531  and  _532
REMARK  219  A    between atoms: _537  and  _539
REMARK  220  A    between atoms: _539  and  _540
REMARK  221  A    between atoms: _539  and  _542
REMARK  222  A    between atoms: _542  and  _543
REMARK  223  A    between atoms: _545  and  _547
REMARK  224  A    between atoms: _547  and  _548
REMARK  225  A    between atoms: _551  and  _553
REMARK  226  A    between atoms: _553  and  _554
REMARK  227  A    between atoms: _553  and  _556
REMARK  228  A    between atoms: _556  and  _557
REMARK  229  A    between atoms: _562  and  _563
REMARK  230  A    between atoms: _565  and  _567
REMARK  231  A    between atoms: _567  and  _568
REMARK  232  A    between atoms: _567  and  _570
REMARK  233  A    between atoms: _570  and  _571
REMARK  234  A    between atoms: _576  and  _577
REMARK  235  A    between atoms: _579  and  _581
REMARK  236  A    between atoms: _581  and  _582
REMARK  237  A    between atoms: _581  and  _584
REMARK  238  A    between atoms: _584  and  _585
REMARK  239  A    between atoms: _588  and  _590
REMARK  240  A    between atoms: _590  and  _591
REMARK  241  A    between atoms: _594  and  _596
REMARK  242  A    between atoms: _596  and  _597
REMARK  243  A    between atoms: _596  and  _599
REMARK  244  A    between atoms: _599  and  _600
REMARK  245  A    between atoms: _610  and  _612
REMARK  246  A    between atoms: _612  and  _613
REMARK  247  A    between atoms: _616  and  _618
REMARK  248  A    between atoms: _618  and  _619
REMARK  249  A    between atoms: _622  and  _624
REMARK  250  A    between atoms: _624  and  _625
REMARK  251  A    between atoms: _624  and  _627
REMARK  252  A    between atoms: _627  and  _628
REMARK  253  A    between atoms: _628  and  _629
REMARK  254  A    between atoms: _634  and  _636
REMARK  255  A    between atoms: _636  and  _637
REMARK  256  A    between atoms: _636  and  _639
REMARK  257  A    between atoms: _639  and  _640
REMARK  258  A    between atoms: _643  and  _645
REMARK  259  A    between atoms: _645  and  _646
REMARK  260  A    between atoms: _645  and  _648
REMARK  261  A    between atoms: _648  and  _649
REMARK  262  A    between atoms: _652  and  _654
REMARK  263  A    between atoms: _654  and  _655
REMARK  264  A    between atoms: _654  and  _657
REMARK  265  A    between atoms: _657  and  _658
REMARK  266  A    between atoms: _658  and  _659
REMARK  267  A    between atoms: _664  and  _666
REMARK  268  A    between atoms: _666  and  _667
REMARK  269  A    between atoms: _666  and  _669
REMARK  270  A    between atoms: _669  and  _670
REMARK  271  A    between atoms: _670  and  _671
REMARK  272  A    between atoms: _671  and  _672
REMARK  273  A    between atoms: _681  and  _683
REMARK  274  A    between atoms: _683  and  _684
REMARK  275  A    between atoms: _683  and  _686
REMARK  276  A    between atoms: _686  and  _687
REMARK  277  A    between atoms: _687  and  _688
REMARK  278  A    between atoms: _688  and  _689
REMARK  279  A    between atoms: _689  and  _690
REMARK  280  A    between atoms: _694  and  _696
REMARK  281  A    between atoms: _696  and  _697
REMARK  282  A    between atoms: _696  and  _699
REMARK  283  A    between atoms: _699  and  _700
REMARK  284  A    between atoms: _710  and  _712
REMARK  285  A    between atoms: _712  and  _713
REMARK  286  A    between atoms: _712  and  _715
REMARK  287  A    between atoms: _715  and  _716
REMARK  288  A    between atoms: _716  and  _717
REMARK  289  A    between atoms: _720  and  _722
REMARK  290  A    between atoms: _722  and  _723
REMARK  291  A    between atoms: _726  and  _728
REMARK  292  A    between atoms: _728  and  _729
REMARK  293  A    between atoms: _732  and  _734
REMARK  294  A    between atoms: _734  and  _735
REMARK  295  A    between atoms: _734  and  _737
REMARK  296  A    between atoms: _737  and  _738
REMARK  297  A    between atoms: _738  and  _739
REMARK  298  A    between atoms: _739  and  _740
REMARK  299  A    between atoms: _749  and  _751
REMARK  300  A    between atoms: _751  and  _752
REMARK  301  A    between atoms: _751  and  _754
REMARK  302  A    between atoms: _754  and  _755
REMARK  303  A    between atoms: _755  and  _756
REMARK  304  A    between atoms: _759  and  _761
REMARK  305  A    between atoms: _761  and  _762
REMARK  306  A    between atoms: _765  and  _767
REMARK  307  A    between atoms: _767  and  _768
REMARK  308  A    between atoms: _767  and  _770
REMARK  309  A    between atoms: _770  and  _771
REMARK  310  A    between atoms: _771  and  _772
REMARK  311  A    between atoms: _775  and  _777
REMARK  312  A    between atoms: _777  and  _778
REMARK  313  A    between atoms: _777  and  _780
REMARK  314  A    between atoms: _780  and  _781
REMARK  315  A    between atoms: _781  and  _782
REMARK  316  A    between atoms: _787  and  _789
REMARK  317  A    between atoms: _789  and  _790
REMARK  318  A    between atoms: _789  and  _792
REMARK  319  A    between atoms: _792  and  _793
REMARK  320  A    between atoms: _803  and  _805
REMARK  321  A    between atoms: _805  and  _806
REMARK  322  A    between atoms: _805  and  _808
REMARK  323  A    between atoms: _808  and  _809
REMARK  324  A    between atoms: _809  and  _810
REMARK  325  A    between atoms: _810  and  _811
REMARK  326  A    between atoms: _820  and  _822
REMARK  327  A    between atoms: _822  and  _823
REMARK  328  A    between atoms: _826  and  _828
REMARK  329  A    between atoms: _828  and  _829
REMARK  330  A    between atoms: _828  and  _831
REMARK  331  A    between atoms: _831  and  _832
REMARK  332  A    between atoms: _837  and  _838
REMARK  333  A    between atoms: _840  and  _842
REMARK  334  A    between atoms: _842  and  _843
REMARK  335  A    between atoms: _842  and  _845
REMARK  336  A    between atoms: _845  and  _846
REMARK  337  A    between atoms: _849  and  _851
REMARK  338  A    between atoms: _851  and  _852
REMARK  339  A    between atoms: _854  and  _856
REMARK  340  A    between atoms: _856  and  _857
REMARK  341  A    between atoms: _856  and  _859
REMARK  342  A    between atoms: _859  and  _860
REMARK  343  A    between atoms: _863  and  _865
REMARK  344  A    between atoms: _865  and  _866
REMARK  345  A    between atoms: _865  and  _868
REMARK  346  A    between atoms: _868  and  _869
REMARK  347  A    between atoms: _870  and  _872
REMARK  348  A    between atoms: _872  and  _873
REMARK  349  A    between atoms: _872  and  _875
REMARK  350  A    between atoms: _878  and  _880
REMARK  351  A    between atoms: _880  and  _881
REMARK  352  A    between atoms: _880  and  _883
REMARK  353  A    between atoms: _883  and  _884
REMARK  354  A    between atoms: _884  and  _885
REMARK  355  A    between atoms: _888  and  _890
REMARK  356  A    between atoms: _890  and  _891
REMARK  357  A    between atoms: _890  and  _893
REMARK  358  A    between atoms: _893  and  _894
REMARK  359  A    between atoms: _904  and  _906
REMARK  360  A    between atoms: _906  and  _907
REMARK  361  A    between atoms: _906  and  _909
REMARK  362  A    between atoms: _909  and  _910
REMARK  363  A    between atoms: _913  and  _915
REMARK  364  A    between atoms: _915  and  _916
REMARK  365  A    between atoms: _915  and  _918
REMARK  366  A    between atoms: _918  and  _919
REMARK  367  A    between atoms: _919  and  _920
REMARK  368  A    between atoms: _920  and  _921
REMARK  369  A    between atoms: _930  and  _932
REMARK  370  A    between atoms: _932  and  _933
REMARK  371  A    between atoms: _932  and  _935
REMARK  372  A    between atoms: _935  and  _936
REMARK  373  A    between atoms: _941  and  _942
REMARK  374  A    between atoms: _944  and  _946
REMARK  375  A    between atoms: _946  and  _947
REMARK  376  A    between atoms: _946  and  _949
REMARK  377  A    between atoms: _949  and  _950
REMARK                            x       y       z     vdW  Elec       q    Type
REMARK                         _______ _______ _______ _____ _____    ______ ____
ROOT
ATOM      1  O   HOH     1      37.366  22.890  37.338  0.00  0.00    +0.000 OA
ENDROOT
TORSDOF 0
REMARK  Name = ../refined-set-2016/1xr9/1xr9_pocket.pdb
REMARK  377 active torsions:
REMARK  status: ('A' for Active; 'I' for Inactive)
REMARK    1  A    between atoms: _1  and  _3
REMARK    2  A    between atoms: _3  and  _4
REMARK    3  A    between atoms: _3  and  _6
REMARK    4  A    between atoms: _6  and  _7
REMARK    5  A    between atoms: _7  and  _8
REMARK    6  A    between atoms: _10  and  _12
REMARK    7  A    between atoms: _12  and  _13
REMARK    8  A    between atoms: _12  and  _15
REMARK    9  A    between atoms: _15  and  _16
REMARK   10  A    between atoms: _16  and  _17
REMARK   11  A    between atoms: _17  and  _18
REMARK   12  A    between atoms: _27  and  _29
REMARK   13  A    between atoms: _29  and  _30
REMARK   14  A    between atoms: _29  and  _32
REMARK   15  A    between atoms: _32  and  _33
REMARK   16  A    between atoms: _38  and  _39
REMARK   17  A    between atoms: _41  and  _43
REMARK   18  A    between atoms: _43  and  _44
REMARK   19  A    between atoms: _43  and  _46
REMARK   20  A    between atoms: _46  and  _47
REMARK   21  A    between atoms: _53  and  _55
REMARK   22  A    between atoms: _55  and  _56
REMARK   23  A    between atoms: _55  and  _58
REMARK   24  A    between atoms: _58  and  _59
REMARK   25  A    between atoms: _64  and  _65
REMARK   26  A    between atoms: _67  and  _69
REMARK   27  A    between atoms: _69  and  _70
REMARK   28  A    between atoms: _69  and  _72
REMARK   29  A    between atoms: _72  and  _73
REMARK   30  A    between atoms: _79  and  _81
REMARK   31  A    between atoms: _81  and  _82
REMARK   32  A    between atoms: _85  and  _87
REMARK   33  A    between atoms: _87  and  _88
REMARK   34  A    between atoms: _87  and  _90
REMARK   35  A    between atoms: _93  and  _95
REMARK   36  A    between atoms: _95  and  _96
REMARK   37  A    between atoms: _98  and  _100
REMARK   38  A    between atoms: _100  and  _101
REMARK   39  A    between atoms: _100  and  _103
REMARK   40  A    between atoms: _106  and  _108
REMARK   41  A    between atoms: _108  and  _109
REMARK   42  A    between atoms: _108  and  _111
REMARK   43  A    between atoms: _111  and  _112
REMARK   44  A    between atoms: _118  and  _120
REMARK   45  A    between atoms: _120  and  _121
REMARK   46  A    between atoms: _120  and  _123
REMARK   47  A    between atoms: _126  and  _128
REMARK   48  A    between atoms: _128  and  _129
REMARK   49  A    between atoms: _128  and  _131
REMARK   50  A    between atoms: _131  and  _132
REMARK   51  A    between atoms: _138  and  _140
REMARK   52  A    between atoms: _140  and  _141
REMARK   53  A    between atoms: _140  and  _143
REMARK   54  A    between atoms: _143  and  _144
REMARK   55  A    between atoms: _144  and  _145
REMARK   56  A    between atoms: _147  and  _149
REMARK   57  A    between atoms: _149  and  _150
REMARK   58  A    between atoms: _149  and  _152
REMARK   59  A    between atoms: _152  and  _153
REMARK   60  A    between atoms: _156  and  _158
REMARK   61  A    between atoms: _158  and  _159
REMARK   62  A    between atoms: _158  and  _161
REMARK   63  A    between atoms: _161  and  _162
REMARK   64  A    between atoms: _162  and  _163
REMARK   65  A    between atoms: _166  and  _168
REMARK   66  A    between atoms: _168  and  _169
REMARK   67  A    between atoms: _168  and  _171
REMARK   68  A    between atoms: _171  and  _172
REMARK   69  A    between atoms: _172  and  _173
REMARK   70  A    between atoms: _176  and  _178
REMARK   71  A    between atoms: _178  and  _179
REMARK   72  A    between atoms: _178  and  _181
REMARK   73  A    between atoms: _181  and  _182
REMARK   74  A    between atoms: _187  and  _188
REMARK   75  A    between atoms: _190  and  _192
REMARK   76  A    between atoms: _192  and  _193
REMARK   77  A    between atoms: _192  and  _195
REMARK   78  A    between atoms: _195  and  _196
REMARK   79  A    between atoms: _206  and  _208
REMARK   80  A    between atoms: _208  and  _209
REMARK   81  A    between atoms: _208  and  _211
REMARK   82  A    between atoms: _211  and  _212
REMARK   83  A    between atoms: _215  and  _217
REMARK   84  A    between atoms: _217  and  _218
REMARK   85  A    between atoms: _217  and  _220
REMARK   86  A    between atoms: _220  and  _221
REMARK   87  A    between atoms: _221  and  _222
REMARK   88  A    between atoms: _222  and  _223
REMARK   89  A    between atoms: _232  and  _234
REMARK   90  A    between atoms: _234  and  _235
REMARK   91  A    between atoms: _234  and  _237
REMARK   92  A    between atoms: _237  and  _238
REMARK   93  A    between atoms: _238  and  _239
REMARK   94  A    between atoms: _242  and  _244
REMARK   95  A    between atoms: _244  and  _245
REMARK   96  A    between atoms: _244  and  _247
REMARK   97  A    between atoms: _247  and  _248
REMARK   98  A    between atoms: _251  and  _253
REMARK   99  A    between atoms: _253  and  _254
REMARK  100  A    between atoms: _253  and  _256
REMARK  101  A    between atoms: _256  and  _257
REMARK  102  A    between atoms: _257  and  _258
REMARK  103  A    between atoms: _263  and  _265
REMARK  104  A    between atoms: _265  and  _266
REMARK  105  A    between atoms: _265  and  _268
REMARK  106  A    between atoms: _268  and  _269
REMARK  107  A    between atoms: _272  and  _274
REMARK  108  A    between atoms: _274  and  _275
REMARK  109  A    between atoms: _274  and  _277
REMARK  110  A    between atoms: _277  and  _278
REMARK  111  A    between atoms: _280  and  _282
REMARK  112  A    between atoms: _282  and  _283
REMARK  113  A    between atoms: _282  and  _285
REMARK  114  A    between atoms: _285  and  _286
REMARK  115  A    between atoms: _286  and  _287
REMARK  116  A    between atoms: _287  and  _288
REMARK  117  A    between atoms: _288  and  _289
REMARK  118  A    between atoms: _293  and  _295
REMARK  119  A    between atoms: _295  and  _296
REMARK  120  A    between atoms: _295  and  _298
REMARK  121  A    between atoms: _298  and  _299
REMARK  122  A    between atoms: _302  and  _304
REMARK  123  A    between atoms: _304  and  _305
REMARK  124  A    between atoms: _304  and  _307
REMARK  125  A    between atoms: _307  and  _308
REMARK  126  A    between atoms: _313  and  _315
REMARK  127  A    between atoms: _315  and  _316
REMARK  128  A    between atoms: _315  and  _318
REMARK  129  A    between atoms: _318  and  _319
REMARK  130  A    between atoms: _319  and  _320
REMARK  131  A    between atoms: _325  and  _327
REMARK  132  A    between atoms: _327  and  _328
REMARK  133  A    between atoms: _327  and  _330
REMARK  134  A    between atoms: _330  and  _331
REMARK  135  A    between atoms: _334  and  _336
REMARK  136  A    between atoms: _336  and  _337
REMARK  137  A    between atoms: _336  and  _339
REMARK  138  A    between atoms: _339  and  _340
REMARK  139  A    between atoms: _345  and  _346
REMARK  140  A    between atoms: _348  and  _350
REMARK  141  A    between atoms: _350  and  _351
REMARK  142  A    between atoms: _350  and  _353
REMARK  143  A    between atoms: _353  and  _354
REMARK  144  A    between atoms: _354  and  _355
REMARK  145  A    between atoms: _355  and  _356
REMARK  146  A    between atoms: _365  and  _367
REMARK  147  A    between atoms: _367  and  _368
REMARK  148  A    between atoms: _367  and  _370
REMARK  149  A    between atoms: _370  and  _371
REMARK  150  A    between atoms: _371  and  _372
REMARK  151  A    between atoms: _375  and  _377
REMARK  152  A    between atoms: _377  and  _378
REMARK  153  A    between atoms: _377  and  _380
REMARK  154  A    between atoms: _380  and  _381
REMARK  155  A    between atoms: _383  and  _385
REMARK  156  A    between atoms: _385  and  _386
REMARK  157  A    between atoms: _385  and  _388
REMARK  158  A    between atoms: _388  and  _389
REMARK  159  A    between atoms: _392  and  _394
REMARK  160  A    between atoms: _394  and  _395
REMARK  161  A    between atoms: _394  and  _397
REMARK  162  A    between atoms: _397  and  _398
REMARK  163  A    between atoms: _398  and  _399
REMARK  164  A    between atoms: _399  and  _400
REMARK  165  A    between atoms: _409  and  _411
REMARK  166  A    between atoms: _411  and  _412
REMARK  167  A    between atoms: _411  and  _414
REMARK  168  A    between atoms: _414  and  _415
REMARK  169  A    between atoms: _420  and  _422
REMARK  170  A    between atoms: _422  and  _423
REMARK  171  A    between atoms: _422  and  _425
REMARK  172  A    between atoms: _425  and  _426
REMARK  173  A    between atoms: _429  and  _431
REMARK  174  A    between atoms: _431  and  _432
REMARK  175  A    between atoms: _431  and  _434
REMARK  176  A    between atoms: _434  and  _435
REMARK  177  A    between atoms: _440  and  _441
REMARK  178  A    between atoms: _443  and  _445
REMARK  179  A    between atoms: _445  and  _446
REMARK  180  A    between atoms: _445  and  _448
REMARK  181  A    between atoms: _448  and  _449
REMARK  182  A    between atoms: _452  and  _454
REMARK  183  A    between atoms: _454  and  _455
REMARK  184  A    between atoms: _454  and  _457
REMARK  185  A    between atoms: _457  and  _458
REMARK  186  A    between atoms: _458  and  _459
REMARK  187  A    between atoms: _464  and  _466
REMARK  188  A    between atoms: _466  and  _467
REMARK  189  A    between atoms: _466  and  _469
REMARK  190  A    between atoms: _469  and  _470
REMARK  191  A    between atoms: _470  and  _471
REMARK  192  A    between atoms: _471  and  _472
REMARK  193  A    between atoms: _481  and  _483
REMARK  194  A    between atoms: _483  and  _484
REMARK  195  A    between atoms: _483  and  _486
REMARK  196  A    between atoms: _486  and  _487
REMARK  197  A    between atoms: _487  and  _488
REMARK  198  A    between atoms: _490  and  _492
REMARK  199  A    between atoms: _492  and  _493
REMARK  200  A    between atoms: _492  and  _495
REMARK  201  A    between atoms: _495  and  _496
REMARK  202  A    between atoms: _501  and  _502
REMARK  203  A    between atoms: _504  and  _506
REMARK  204  A    between atoms: _506  and  _507
REMARK  205  A    between atoms: _509  and  _511
REMARK  206  A    between atoms: _511  and  _512
REMARK  207  A    between atoms: _511  and  _514
REMARK  208  A    between atoms: _514  and  _515
REMARK  209  A    between atoms: _515  and  _869
REMARK  210  A    between atoms: _516  and  _518
REMARK  211  A    between atoms: _518  and  _519
REMARK  212  A    between atoms: _518  and  _521
REMARK  213  A    between atoms: _521  and  _522
REMARK  214  A    between atoms: _525  and  _527
REMARK  215  A    between atoms: _527  and  _528
REMARK  216  A    between atoms: _527  and  _530
REMARK  217  A    between atoms: _530  and  _531
REMARK  218  A    between atoms: _531  and  _532
REMARK  219  A    between atoms: _537  and  _539
REMARK  220  A    between atoms: _539  and  _540
REMARK  221  A    between atoms: _539  and  _542
REMARK  222  A    between atoms: _542  and  _543
REMARK  223  A    between atoms: _545  and  _547
REMARK  224  A    between atoms: _547  and  _548
REMARK  225  A    between atoms: _551  and  _553
REMARK  226  A    between atoms: _553  and  _554
REMARK  227  A    between atoms: _553  and  _556
REMARK  228  A    between atoms: _556  and  _557
REMARK  229  A    between atoms: _562  and  _563
REMARK  230  A    between atoms: _565  and  _567
REMARK  231  A    between atoms: _567  and  _568
REMARK  232  A    between atoms: _567  and  _570
REMARK  233  A    between atoms: _570  and  _571
REMARK  234  A    between atoms: _576  and  _577
REMARK  235  A    between atoms: _579  and  _581
REMARK  236  A    between atoms: _581  and  _582
REMARK  237  A    between atoms: _581  and  _584
REMARK  238  A    between atoms: _584  and  _585
REMARK  239  A    between atoms: _588  and  _590
REMARK  240  A    between atoms: _590  and  _591
REMARK  241  A    between atoms: _594  and  _596
REMARK  242  A    between atoms: _596  and  _597
REMARK  243  A    between atoms: _596  and  _599
REMARK  244  A    between atoms: _599  and  _600
REMARK  245  A    between atoms: _610  and  _612
REMARK  246  A    between atoms: _612  and  _613
REMARK  247  A    between atoms: _616  and  _618
REMARK  248  A    between atoms: _618  and  _619
REMARK  249  A    between atoms: _622  and  _624
REMARK  250  A    between atoms: _624  and  _625
REMARK  251  A    between atoms: _624  and  _627
REMARK  252  A    between atoms: _627  and  _628
REMARK  253  A    between atoms: _628  and  _629
REMARK  254  A    between atoms: _634  and  _636
REMARK  255  A    between atoms: _636  and  _637
REMARK  256  A    between atoms: _636  and  _639
REMARK  257  A    between atoms: _639  and  _640
REMARK  258  A    between atoms: _643  and  _645
REMARK  259  A    between atoms: _645  and  _646
REMARK  260  A    between atoms: _645  and  _648
REMARK  261  A    between atoms: _648  and  _649
REMARK  262  A    between atoms: _652  and  _654
REMARK  263  A    between atoms: _654  and  _655
REMARK  264  A    between atoms: _654  and  _657
REMARK  265  A    between atoms: _657  and  _658
REMARK  266  A    between atoms: _658  and  _659
REMARK  267  A    between atoms: _664  and  _666
REMARK  268  A    between atoms: _666  and  _667
REMARK  269  A    between atoms: _666  and  _669
REMARK  270  A    between atoms: _669  and  _670
REMARK  271  A    between atoms: _670  and  _671
REMARK  272  A    between atoms: _671  and  _672
REMARK  273  A    between atoms: _681  and  _683
REMARK  274  A    between atoms: _683  and  _684
REMARK  275  A    between atoms: _683  and  _686
REMARK  276  A    between atoms: _686  and  _687
REMARK  277  A    between atoms: _687  and  _688
REMARK  278  A    between atoms: _688  and  _689
REMARK  279  A    between atoms: _689  and  _690
REMARK  280  A    between atoms: _694  and  _696
REMARK  281  A    between atoms: _696  and  _697
REMARK  282  A    between atoms: _696  and  _699
REMARK  283  A    between atoms: _699  and  _700
REMARK  284  A    between atoms: _710  and  _712
REMARK  285  A    between atoms: _712  and  _713
REMARK  286  A    between atoms: _712  and  _715
REMARK  287  A    between atoms: _715  and  _716
REMARK  288  A    between atoms: _716  and  _717
REMARK  289  A    between atoms: _720  and  _722
REMARK  290  A    between atoms: _722  and  _723
REMARK  291  A    between atoms: _726  and  _728
REMARK  292  A    between atoms: _728  and  _729
REMARK  293  A    between atoms: _732  and  _734
REMARK  294  A    between atoms: _734  and  _735
REMARK  295  A    between atoms: _734  and  _737
REMARK  296  A    between atoms: _737  and  _738
REMARK  297  A    between atoms: _738  and  _739
REMARK  298  A    between atoms: _739  and  _740
REMARK  299  A    between atoms: _749  and  _751
REMARK  300  A    between atoms: _751  and  _752
REMARK  301  A    between atoms: _751  and  _754
REMARK  302  A    between atoms: _754  and  _755
REMARK  303  A    between atoms: _755  and  _756
REMARK  304  A    between atoms: _759  and  _761
REMARK  305  A    between atoms: _761  and  _762
REMARK  306  A    between atoms: _765  and  _767
REMARK  307  A    between atoms: _767  and  _768
REMARK  308  A    between atoms: _767  and  _770
REMARK  309  A    between atoms: _770  and  _771
REMARK  310  A    between atoms: _771  and  _772
REMARK  311  A    between atoms: _775  and  _777
REMARK  312  A    between atoms: _777  and  _778
REMARK  313  A    between atoms: _777  and  _780
REMARK  314  A    between atoms: _780  and  _781
REMARK  315  A    between atoms: _781  and  _782
REMARK  316  A    between atoms: _787  and  _789
REMARK  317  A    between atoms: _789  and  _790
REMARK  318  A    between atoms: _789  and  _792
REMARK  319  A    between atoms: _792  and  _793
REMARK  320  A    between atoms: _803  and  _805
REMARK  321  A    between atoms: _805  and  _806
REMARK  322  A    between atoms: _805  and  _808
REMARK  323  A    between atoms: _808  and  _809
REMARK  324  A    between atoms: _809  and  _810
REMARK  325  A    between atoms: _810  and  _811
REMARK  326  A    between atoms: _820  and  _822
REMARK  327  A    between atoms: _822  and  _823
REMARK  328  A    between atoms: _826  and  _828
REMARK  329  A    between atoms: _828  and  _829
REMARK  330  A    between atoms: _828  and  _831
REMARK  331  A    between atoms: _831  and  _832
REMARK  332  A    between atoms: _837  and  _838
REMARK  333  A    between atoms: _840  and  _842
REMARK  334  A    between atoms: _842  and  _843
REMARK  335  A    between atoms: _842  and  _845
REMARK  336  A    between atoms: _845  and  _846
REMARK  337  A    between atoms: _849  and  _851
REMARK  338  A    between atoms: _851  and  _852
REMARK  339  A    between atoms: _854  and  _856
REMARK  340  A    between atoms: _856  and  _857
REMARK  341  A    between atoms: _856  and  _859
REMARK  342  A    between atoms: _859  and  _860
REMARK  343  A    between atoms: _863  and  _865
REMARK  344  A    between atoms: _865  and  _866
REMARK  345  A    between atoms: _865  and  _868
REMARK  346  A    between atoms: _868  and  _869
REMARK  347  A    between atoms: _870  and  _872
REMARK  348  A    between atoms: _872  and  _873
REMARK  349  A    between atoms: _872  and  _875
REMARK  350  A    between atoms: _878  and  _880
REMARK  351  A    between atoms: _880  and  _881
REMARK  352  A    between atoms: _880  and  _883
REMARK  353  A    between atoms: _883  and  _884
REMARK  354  A    between atoms: _884  and  _885
REMARK  355  A    between atoms: _888  and  _890
REMARK  356  A    between atoms: _890  and  _891
REMARK  357  A    between atoms: _890  and  _893
REMARK  358  A    between atoms: _893  and  _894
REMARK  359  A    between atoms: _904  and  _906
REMARK  360  A    between atoms: _906  and  _907
REMARK  361  A    between atoms: _906  and  _909
REMARK  362  A    between atoms: _909  and  _910
REMARK  363  A    between atoms: _913  and  _915
REMARK  364  A    between atoms: _915  and  _916
REMARK  365  A    between atoms: _915  and  _918
REMARK  366  A    between atoms: _918  and  _919
REMARK  367  A    between atoms: _919  and  _920
REMARK  368  A    between atoms: _920  and  _921
REMARK  369  A    between atoms: _930  and  _932
REMARK  370  A    between atoms: _932  and  _933
REMARK  371  A    between atoms: _932  and  _935
REMARK  372  A    between atoms: _935  and  _936
REMARK  373  A    between atoms: _941  and  _942
REMARK  374  A    between atoms: _944  and  _946
REMARK  375  A    between atoms: _946  and  _947
REMARK  376  A    between atoms: _946  and  _949
REMARK  377  A    between atoms: _949  and  _950
REMARK                            x       y       z     vdW  Elec       q    Type
REMARK                         _______ _______ _______ _____ _____    ______ ____
ROOT
ATOM      1  O   HOH     1      26.945  23.504  27.297  0.00  0.00    +0.000 OA
ENDROOT
TORSDOF 0
REMARK  Name = ../refined-set-2016/1xr9/1xr9_pocket.pdb
REMARK  377 active torsions:
REMARK  status: ('A' for Active; 'I' for Inactive)
REMARK    1  A    between atoms: _1  and  _3
REMARK    2  A    between atoms: _3  and  _4
REMARK    3  A    between atoms: _3  and  _6
REMARK    4  A    between atoms: _6  and  _7
REMARK    5  A    between atoms: _7  and  _8
REMARK    6  A    between atoms: _10  and  _12
REMARK    7  A    between atoms: _12  and  _13
REMARK    8  A    between atoms: _12  and  _15
REMARK    9  A    between atoms: _15  and  _16
REMARK   10  A    between atoms: _16  and  _17
REMARK   11  A    between atoms: _17  and  _18
REMARK   12  A    between atoms: _27  and  _29
REMARK   13  A    between atoms: _29  and  _30
REMARK   14  A    between atoms: _29  and  _32
REMARK   15  A    between atoms: _32  and  _33
REMARK   16  A    between atoms: _38  and  _39
REMARK   17  A    between atoms: _41  and  _43
REMARK   18  A    between atoms: _43  and  _44
REMARK   19  A    between atoms: _43  and  _46
REMARK   20  A    between atoms: _46  and  _47
REMARK   21  A    between atoms: _53  and  _55
REMARK   22  A    between atoms: _55  and  _56
REMARK   23  A    between atoms: _55  and  _58
REMARK   24  A    between atoms: _58  and  _59
REMARK   25  A    between atoms: _64  and  _65
REMARK   26  A    between atoms: _67  and  _69
REMARK   27  A    between atoms: _69  and  _70
REMARK   28  A    between atoms: _69  and  _72
REMARK   29  A    between atoms: _72  and  _73
REMARK   30  A    between atoms: _79  and  _81
REMARK   31  A    between atoms: _81  and  _82
REMARK   32  A    between atoms: _85  and  _87
REMARK   33  A    between atoms: _87  and  _88
REMARK   34  A    between atoms: _87  and  _90
REMARK   35  A    between atoms: _93  and  _95
REMARK   36  A    between atoms: _95  and  _96
REMARK   37  A    between atoms: _98  and  _100
REMARK   38  A    between atoms: _100  and  _101
REMARK   39  A    between atoms: _100  and  _103
REMARK   40  A    between atoms: _106  and  _108
REMARK   41  A    between atoms: _108  and  _109
REMARK   42  A    between atoms: _108  and  _111
REMARK   43  A    between atoms: _111  and  _112
REMARK   44  A    between atoms: _118  and  _120
REMARK   45  A    between atoms: _120  and  _121
REMARK   46  A    between atoms: _120  and  _123
REMARK   47  A    between atoms: _126  and  _128
REMARK   48  A    between atoms: _128  and  _129
REMARK   49  A    between atoms: _128  and  _131
REMARK   50  A    between atoms: _131  and  _132
REMARK   51  A    between atoms: _138  and  _140
REMARK   52  A    between atoms: _140  and  _141
REMARK   53  A    between atoms: _140  and  _143
REMARK   54  A    between atoms: _143  and  _144
REMARK   55  A    between atoms: _144  and  _145
REMARK   56  A    between atoms: _147  and  _149
REMARK   57  A    between atoms: _149  and  _150
REMARK   58  A    between atoms: _149  and  _152
REMARK   59  A    between atoms: _152  and  _153
REMARK   60  A    between atoms: _156  and  _158
REMARK   61  A    between atoms: _158  and  _159
REMARK   62  A    between atoms: _158  and  _161
REMARK   63  A    between atoms: _161  and  _162
REMARK   64  A    between atoms: _162  and  _163
REMARK   65  A    between atoms: _166  and  _168
REMARK   66  A    between atoms: _168  and  _169
REMARK   67  A    between atoms: _168  and  _171
REMARK   68  A    between atoms: _171  and  _172
REMARK   69  A    between atoms: _172  and  _173
REMARK   70  A    between atoms: _176  and  _178
REMARK   71  A    between atoms: _178  and  _179
REMARK   72  A    between atoms: _178  and  _181
REMARK   73  A    between atoms: _181  and  _182
REMARK   74  A    between atoms: _187  and  _188
REMARK   75  A    between atoms: _190  and  _192
REMARK   76  A    between atoms: _192  and  _193
REMARK   77  A    between atoms: _192  and  _195
REMARK   78  A    between atoms: _195  and  _196
REMARK   79  A    between atoms: _206  and  _208
REMARK   80  A    between atoms: _208  and  _209
REMARK   81  A    between atoms: _208  and  _211
REMARK   82  A    between atoms: _211  and  _212
REMARK   83  A    between atoms: _215  and  _217
REMARK   84  A    between atoms: _217  and  _218
REMARK   85  A    between atoms: _217  and  _220
REMARK   86  A    between atoms: _220  and  _221
REMARK   87  A    between atoms: _221  and  _222
REMARK   88  A    between atoms: _222  and  _223
REMARK   89  A    between atoms: _232  and  _234
REMARK   90  A    between atoms: _234  and  _235
REMARK   91  A    between atoms: _234  and  _237
REMARK   92  A    between atoms: _237  and  _238
REMARK   93  A    between atoms: _238  and  _239
REMARK   94  A    between atoms: _242  and  _244
REMARK   95  A    between atoms: _244  and  _245
REMARK   96  A    between atoms: _244  and  _247
REMARK   97  A    between atoms: _247  and  _248
REMARK   98  A    between atoms: _251  and  _253
REMARK   99  A    between atoms: _253  and  _254
REMARK  100  A    between atoms: _253  and  _256
REMARK  101  A    between atoms: _256  and  _257
REMARK  102  A    between atoms: _257  and  _258
REMARK  103  A    between atoms: _263  and  _265
REMARK  104  A    between atoms: _265  and  _266
REMARK  105  A    between atoms: _265  and  _268
REMARK  106  A    between atoms: _268  and  _269
REMARK  107  A    between atoms: _272  and  _274
REMARK  108  A    between atoms: _274  and  _275
REMARK  109  A    between atoms: _274  and  _277
REMARK  110  A    between atoms: _277  and  _278
REMARK  111  A    between atoms: _280  and  _282
REMARK  112  A    between atoms: _282  and  _283
REMARK  113  A    between atoms: _282  and  _285
REMARK  114  A    between atoms: _285  and  _286
REMARK  115  A    between atoms: _286  and  _287
REMARK  116  A    between atoms: _287  and  _288
REMARK  117  A    between atoms: _288  and  _289
REMARK  118  A    between atoms: _293  and  _295
REMARK  119  A    between atoms: _295  and  _296
REMARK  120  A    between atoms: _295  and  _298
REMARK  121  A    between atoms: _298  and  _299
REMARK  122  A    between atoms: _302  and  _304
REMARK  123  A    between atoms: _304  and  _305
REMARK  124  A    between atoms: _304  and  _307
REMARK  125  A    between atoms: _307  and  _308
REMARK  126  A    between atoms: _313  and  _315
REMARK  127  A    between atoms: _315  and  _316
REMARK  128  A    between atoms: _315  and  _318
REMARK  129  A    between atoms: _318  and  _319
REMARK  130  A    between atoms: _319  and  _320
REMARK  131  A    between atoms: _325  and  _327
REMARK  132  A    between atoms: _327  and  _328
REMARK  133  A    between atoms: _327  and  _330
REMARK  134  A    between atoms: _330  and  _331
REMARK  135  A    between atoms: _334  and  _336
REMARK  136  A    between atoms: _336  and  _337
REMARK  137  A    between atoms: _336  and  _339
REMARK  138  A    between atoms: _339  and  _340
REMARK  139  A    between atoms: _345  and  _346
REMARK  140  A    between atoms: _348  and  _350
REMARK  141  A    between atoms: _350  and  _351
REMARK  142  A    between atoms: _350  and  _353
REMARK  143  A    between atoms: _353  and  _354
REMARK  144  A    between atoms: _354  and  _355
REMARK  145  A    between atoms: _355  and  _356
REMARK  146  A    between atoms: _365  and  _367
REMARK  147  A    between atoms: _367  and  _368
REMARK  148  A    between atoms: _367  and  _370
REMARK  149  A    between atoms: _370  and  _371
REMARK  150  A    between atoms: _371  and  _372
REMARK  151  A    between atoms: _375  and  _377
REMARK  152  A    between atoms: _377  and  _378
REMARK  153  A    between atoms: _377  and  _380
REMARK  154  A    between atoms: _380  and  _381
REMARK  155  A    between atoms: _383  and  _385
REMARK  156  A    between atoms: _385  and  _386
REMARK  157  A    between atoms: _385  and  _388
REMARK  158  A    between atoms: _388  and  _389
REMARK  159  A    between atoms: _392  and  _394
REMARK  160  A    between atoms: _394  and  _395
REMARK  161  A    between atoms: _394  and  _397
REMARK  162  A    between atoms: _397  and  _398
REMARK  163  A    between atoms: _398  and  _399
REMARK  164  A    between atoms: _399  and  _400
REMARK  165  A    between atoms: _409  and  _411
REMARK  166  A    between atoms: _411  and  _412
REMARK  167  A    between atoms: _411  and  _414
REMARK  168  A    between atoms: _414  and  _415
REMARK  169  A    between atoms: _420  and  _422
REMARK  170  A    between atoms: _422  and  _423
REMARK  171  A    between atoms: _422  and  _425
REMARK  172  A    between atoms: _425  and  _426
REMARK  173  A    between atoms: _429  and  _431
REMARK  174  A    between atoms: _431  and  _432
REMARK  175  A    between atoms: _431  and  _434
REMARK  176  A    between atoms: _434  and  _435
REMARK  177  A    between atoms: _440  and  _441
REMARK  178  A    between atoms: _443  and  _445
REMARK  179  A    between atoms: _445  and  _446
REMARK  180  A    between atoms: _445  and  _448
REMARK  181  A    between atoms: _448  and  _449
REMARK  182  A    between atoms: _452  and  _454
REMARK  183  A    between atoms: _454  and  _455
REMARK  184  A    between atoms: _454  and  _457
REMARK  185  A    between atoms: _457  and  _458
REMARK  186  A    between atoms: _458  and  _459
REMARK  187  A    between atoms: _464  and  _466
REMARK  188  A    between atoms: _466  and  _467
REMARK  189  A    between atoms: _466  and  _469
REMARK  190  A    between atoms: _469  and  _470
REMARK  191  A    between atoms: _470  and  _471
REMARK  192  A    between atoms: _471  and  _472
REMARK  193  A    between atoms: _481  and  _483
REMARK  194  A    between atoms: _483  and  _484
REMARK  195  A    between atoms: _483  and  _486
REMARK  196  A    between atoms: _486  and  _487
REMARK  197  A    between atoms: _487  and  _488
REMARK  198  A    between atoms: _490  and  _492
REMARK  199  A    between atoms: _492  and  _493
REMARK  200  A    between atoms: _492  and  _495
REMARK  201  A    between atoms: _495  and  _496
REMARK  202  A    between atoms: _501  and  _502
REMARK  203  A    between atoms: _504  and  _506
REMARK  204  A    between atoms: _506  and  _507
REMARK  205  A    between atoms: _509  and  _511
REMARK  206  A    between atoms: _511  and  _512
REMARK  207  A    between atoms: _511  and  _514
REMARK  208  A    between atoms: _514  and  _515
REMARK  209  A    between atoms: _515  and  _869
REMARK  210  A    between atoms: _516  and  _518
REMARK  211  A    between atoms: _518  and  _519
REMARK  212  A    between atoms: _518  and  _521
REMARK  213  A    between atoms: _521  and  _522
REMARK  214  A    between atoms: _525  and  _527
REMARK  215  A    between atoms: _527  and  _528
REMARK  216  A    between atoms: _527  and  _530
REMARK  217  A    between atoms: _530  and  _531
REMARK  218  A    between atoms: _531  and  _532
REMARK  219  A    between atoms: _537  and  _539
REMARK  220  A    between atoms: _539  and  _540
REMARK  221  A    between atoms: _539  and  _542
REMARK  222  A    between atoms: _542  and  _543
REMARK  223  A    between atoms: _545  and  _547
REMARK  224  A    between atoms: _547  and  _548
REMARK  225  A    between atoms: _551  and  _553
REMARK  226  A    between atoms: _553  and  _554
REMARK  227  A    between atoms: _553  and  _556
REMARK  228  A    between atoms: _556  and  _557
REMARK  229  A    between atoms: _562  and  _563
REMARK  230  A    between atoms: _565  and  _567
REMARK  231  A    between atoms: _567  and  _568
REMARK  232  A    between atoms: _567  and  _570
REMARK  233  A    between atoms: _570  and  _571
REMARK  234  A    between atoms: _576  and  _577
REMARK  235  A    between atoms: _579  and  _581
REMARK  236  A    between atoms: _581  and  _582
REMARK  237  A    between atoms: _581  and  _584
REMARK  238  A    between atoms: _584  and  _585
REMARK  239  A    between atoms: _588  and  _590
REMARK  240  A    between atoms: _590  and  _591
REMARK  241  A    between atoms: _594  and  _596
REMARK  242  A    between atoms: _596  and  _597
REMARK  243  A    between atoms: _596  and  _599
REMARK  244  A    between atoms: _599  and  _600
REMARK  245  A    between atoms: _610  and  _612
REMARK  246  A    between atoms: _612  and  _613
REMARK  247  A    between atoms: _616  and  _618
REMARK  248  A    between atoms: _618  and  _619
REMARK  249  A    between atoms: _622  and  _624
REMARK  250  A    between atoms: _624  and  _625
REMARK  251  A    between atoms: _624  and  _627
REMARK  252  A    between atoms: _627  and  _628
REMARK  253  A    between atoms: _628  and  _629
REMARK  254  A    between atoms: _634  and  _636
REMARK  255  A    between atoms: _636  and  _637
REMARK  256  A    between atoms: _636  and  _639
REMARK  257  A    between atoms: _639  and  _640
REMARK  258  A    between atoms: _643  and  _645
REMARK  259  A    between atoms: _645  and  _646
REMARK  260  A    between atoms: _645  and  _648
REMARK  261  A    between atoms: _648  and  _649
REMARK  262  A    between atoms: _652  and  _654
REMARK  263  A    between atoms: _654  and  _655
REMARK  264  A    between atoms: _654  and  _657
REMARK  265  A    between atoms: _657  and  _658
REMARK  266  A    between atoms: _658  and  _659
REMARK  267  A    between atoms: _664  and  _666
REMARK  268  A    between atoms: _666  and  _667
REMARK  269  A    between atoms: _666  and  _669
REMARK  270  A    between atoms: _669  and  _670
REMARK  271  A    between atoms: _670  and  _671
REMARK  272  A    between atoms: _671  and  _672
REMARK  273  A    between atoms: _681  and  _683
REMARK  274  A    between atoms: _683  and  _684
REMARK  275  A    between atoms: _683  and  _686
REMARK  276  A    between atoms: _686  and  _687
REMARK  277  A    between atoms: _687  and  _688
REMARK  278  A    between atoms: _688  and  _689
REMARK  279  A    between atoms: _689  and  _690
REMARK  280  A    between atoms: _694  and  _696
REMARK  281  A    between atoms: _696  and  _697
REMARK  282  A    between atoms: _696  and  _699
REMARK  283  A    between atoms: _699  and  _700
REMARK  284  A    between atoms: _710  and  _712
REMARK  285  A    between atoms: _712  and  _713
REMARK  286  A    between atoms: _712  and  _715
REMARK  287  A    between atoms: _715  and  _716
REMARK  288  A    between atoms: _716  and  _717
REMARK  289  A    between atoms: _720  and  _722
REMARK  290  A    between atoms: _722  and  _723
REMARK  291  A    between atoms: _726  and  _728
REMARK  292  A    between atoms: _728  and  _729
REMARK  293  A    between atoms: _732  and  _734
REMARK  294  A    between atoms: _734  and  _735
REMARK  295  A    between atoms: _734  and  _737
REMARK  296  A    between atoms: _737  and  _738
REMARK  297  A    between atoms: _738  and  _739
REMARK  298  A    between atoms: _739  and  _740
REMARK  299  A    between atoms: _749  and  _751
REMARK  300  A    between atoms: _751  and  _752
REMARK  301  A    between atoms: _751  and  _754
REMARK  302  A    between atoms: _754  and  _755
REMARK  303  A    between atoms: _755  and  _756
REMARK  304  A    between atoms: _759  and  _761
REMARK  305  A    between atoms: _761  and  _762
REMARK  306  A    between atoms: _765  and  _767
REMARK  307  A    between atoms: _767  and  _768
REMARK  308  A    between atoms: _767  and  _770
REMARK  309  A    between atoms: _770  and  _771
REMARK  310  A    between atoms: _771  and  _772
REMARK  311  A    between atoms: _775  and  _777
REMARK  312  A    between atoms: _777  and  _778
REMARK  313  A    between atoms: _777  and  _780
REMARK  314  A    between atoms: _780  and  _781
REMARK  315  A    between atoms: _781  and  _782
REMARK  316  A    between atoms: _787  and  _789
REMARK  317  A    between atoms: _789  and  _790
REMARK  318  A    between atoms: _789  and  _792
REMARK  319  A    between atoms: _792  and  _793
REMARK  320  A    between atoms: _803  and  _805
REMARK  321  A    between atoms: _805  and  _806
REMARK  322  A    between atoms: _805  and  _808
REMARK  323  A    between atoms: _808  and  _809
REMARK  324  A    between atoms: _809  and  _810
REMARK  325  A    between atoms: _810  and  _811
REMARK  326  A    between atoms: _820  and  _822
REMARK  327  A    between atoms: _822  and  _823
REMARK  328  A    between atoms: _826  and  _828
REMARK  329  A    between atoms: _828  and  _829
REMARK  330  A    between atoms: _828  and  _831
REMARK  331  A    between atoms: _831  and  _832
REMARK  332  A    between atoms: _837  and  _838
REMARK  333  A    between atoms: _840  and  _842
REMARK  334  A    between atoms: _842  and  _843
REMARK  335  A    between atoms: _842  and  _845
REMARK  336  A    between atoms: _845  and  _846
REMARK  337  A    between atoms: _849  and  _851
REMARK  338  A    between atoms: _851  and  _852
REMARK  339  A    between atoms: _854  and  _856
REMARK  340  A    between atoms: _856  and  _857
REMARK  341  A    between atoms: _856  and  _859
REMARK  342  A    between atoms: _859  and  _860
REMARK  343  A    between atoms: _863  and  _865
REMARK  344  A    between atoms: _865  and  _866
REMARK  345  A    between atoms: _865  and  _868
REMARK  346  A    between atoms: _868  and  _869
REMARK  347  A    between atoms: _870  and  _872
REMARK  348  A    between atoms: _872  and  _873
REMARK  349  A    between atoms: _872  and  _875
REMARK  350  A    between atoms: _878  and  _880
REMARK  351  A    between atoms: _880  and  _881
REMARK  352  A    between atoms: _880  and  _883
REMARK  353  A    between atoms: _883  and  _884
REMARK  354  A    between atoms: _884  and  _885
REMARK  355  A    between atoms: _888  and  _890
REMARK  356  A    between atoms: _890  and  _891
REMARK  357  A    between atoms: _890  and  _893
REMARK  358  A    between atoms: _893  and  _894
REMARK  359  A    between atoms: _904  and  _906
REMARK  360  A    between atoms: _906  and  _907
REMARK  361  A    between atoms: _906  and  _909
REMARK  362  A    between atoms: _909  and  _910
REMARK  363  A    between atoms: _913  and  _915
REMARK  364  A    between atoms: _915  and  _916
REMARK  365  A    between atoms: _915  and  _918
REMARK  366  A    between atoms: _918  and  _919
REMARK  367  A    between atoms: _919  and  _920
REMARK  368  A    between atoms: _920  and  _921
REMARK  369  A    between atoms: _930  and  _932
REMARK  370  A    between atoms: _932  and  _933
REMARK  371  A    between atoms: _932  and  _935
REMARK  372  A    between atoms: _935  and  _936
REMARK  373  A    between atoms: _941  and  _942
REMARK  374  A    between atoms: _944  and  _946
REMARK  375  A    between atoms: _946  and  _947
REMARK  376  A    between atoms: _946  and  _949
REMARK  377  A    between atoms: _949  and  _950
REMARK                            x       y       z     vdW  Elec       q    Type
REMARK                         _______ _______ _______ _____ _____    ______ ____
ROOT
ATOM      1  O   HOH     1      20.284  32.997  34.518  0.00  0.00    +0.000 OA
ENDROOT
TORSDOF 0
REMARK  Name = ../refined-set-2016/1xr9/1xr9_pocket.pdb
REMARK  377 active torsions:
REMARK  status: ('A' for Active; 'I' for Inactive)
REMARK    1  A    between atoms: _1  and  _3
REMARK    2  A    between atoms: _3  and  _4
REMARK    3  A    between atoms: _3  and  _6
REMARK    4  A    between atoms: _6  and  _7
REMARK    5  A    between atoms: _7  and  _8
REMARK    6  A    between atoms: _10  and  _12
REMARK    7  A    between atoms: _12  and  _13
REMARK    8  A    between atoms: _12  and  _15
REMARK    9  A    between atoms: _15  and  _16
REMARK   10  A    between atoms: _16  and  _17
REMARK   11  A    between atoms: _17  and  _18
REMARK   12  A    between atoms: _27  and  _29
REMARK   13  A    between atoms: _29  and  _30
REMARK   14  A    between atoms: _29  and  _32
REMARK   15  A    between atoms: _32  and  _33
REMARK   16  A    between atoms: _38  and  _39
REMARK   17  A    between atoms: _41  and  _43
REMARK   18  A    between atoms: _43  and  _44
REMARK   19  A    between atoms: _43  and  _46
REMARK   20  A    between atoms: _46  and  _47
REMARK   21  A    between atoms: _53  and  _55
REMARK   22  A    between atoms: _55  and  _56
REMARK   23  A    between atoms: _55  and  _58
REMARK   24  A    between atoms: _58  and  _59
REMARK   25  A    between atoms: _64  and  _65
REMARK   26  A    between atoms: _67  and  _69
REMARK   27  A    between atoms: _69  and  _70
REMARK   28  A    between atoms: _69  and  _72
REMARK   29  A    between atoms: _72  and  _73
REMARK   30  A    between atoms: _79  and  _81
REMARK   31  A    between atoms: _81  and  _82
REMARK   32  A    between atoms: _85  and  _87
REMARK   33  A    between atoms: _87  and  _88
REMARK   34  A    between atoms: _87  and  _90
REMARK   35  A    between atoms: _93  and  _95
REMARK   36  A    between atoms: _95  and  _96
REMARK   37  A    between atoms: _98  and  _100
REMARK   38  A    between atoms: _100  and  _101
REMARK   39  A    between atoms: _100  and  _103
REMARK   40  A    between atoms: _106  and  _108
REMARK   41  A    between atoms: _108  and  _109
REMARK   42  A    between atoms: _108  and  _111
REMARK   43  A    between atoms: _111  and  _112
REMARK   44  A    between atoms: _118  and  _120
REMARK   45  A    between atoms: _120  and  _121
REMARK   46  A    between atoms: _120  and  _123
REMARK   47  A    between atoms: _126  and  _128
REMARK   48  A    between atoms: _128  and  _129
REMARK   49  A    between atoms: _128  and  _131
REMARK   50  A    between atoms: _131  and  _132
REMARK   51  A    between atoms: _138  and  _140
REMARK   52  A    between atoms: _140  and  _141
REMARK   53  A    between atoms: _140  and  _143
REMARK   54  A    between atoms: _143  and  _144
REMARK   55  A    between atoms: _144  and  _145
REMARK   56  A    between atoms: _147  and  _149
REMARK   57  A    between atoms: _149  and  _150
REMARK   58  A    between atoms: _149  and  _152
REMARK   59  A    between atoms: _152  and  _153
REMARK   60  A    between atoms: _156  and  _158
REMARK   61  A    between atoms: _158  and  _159
REMARK   62  A    between atoms: _158  and  _161
REMARK   63  A    between atoms: _161  and  _162
REMARK   64  A    between atoms: _162  and  _163
REMARK   65  A    between atoms: _166  and  _168
REMARK   66  A    between atoms: _168  and  _169
REMARK   67  A    between atoms: _168  and  _171
REMARK   68  A    between atoms: _171  and  _172
REMARK   69  A    between atoms: _172  and  _173
REMARK   70  A    between atoms: _176  and  _178
REMARK   71  A    between atoms: _178  and  _179
REMARK   72  A    between atoms: _178  and  _181
REMARK   73  A    between atoms: _181  and  _182
REMARK   74  A    between atoms: _187  and  _188
REMARK   75  A    between atoms: _190  and  _192
REMARK   76  A    between atoms: _192  and  _193
REMARK   77  A    between atoms: _192  and  _195
REMARK   78  A    between atoms: _195  and  _196
REMARK   79  A    between atoms: _206  and  _208
REMARK   80  A    between atoms: _208  and  _209
REMARK   81  A    between atoms: _208  and  _211
REMARK   82  A    between atoms: _211  and  _212
REMARK   83  A    between atoms: _215  and  _217
REMARK   84  A    between atoms: _217  and  _218
REMARK   85  A    between atoms: _217  and  _220
REMARK   86  A    between atoms: _220  and  _221
REMARK   87  A    between atoms: _221  and  _222
REMARK   88  A    between atoms: _222  and  _223
REMARK   89  A    between atoms: _232  and  _234
REMARK   90  A    between atoms: _234  and  _235
REMARK   91  A    between atoms: _234  and  _237
REMARK   92  A    between atoms: _237  and  _238
REMARK   93  A    between atoms: _238  and  _239
REMARK   94  A    between atoms: _242  and  _244
REMARK   95  A    between atoms: _244  and  _245
REMARK   96  A    between atoms: _244  and  _247
REMARK   97  A    between atoms: _247  and  _248
REMARK   98  A    between atoms: _251  and  _253
REMARK   99  A    between atoms: _253  and  _254
REMARK  100  A    between atoms: _253  and  _256
REMARK  101  A    between atoms: _256  and  _257
REMARK  102  A    between atoms: _257  and  _258
REMARK  103  A    between atoms: _263  and  _265
REMARK  104  A    between atoms: _265  and  _266
REMARK  105  A    between atoms: _265  and  _268
REMARK  106  A    between atoms: _268  and  _269
REMARK  107  A    between atoms: _272  and  _274
REMARK  108  A    between atoms: _274  and  _275
REMARK  109  A    between atoms: _274  and  _277
REMARK  110  A    between atoms: _277  and  _278
REMARK  111  A    between atoms: _280  and  _282
REMARK  112  A    between atoms: _282  and  _283
REMARK  113  A    between atoms: _282  and  _285
REMARK  114  A    between atoms: _285  and  _286
REMARK  115  A    between atoms: _286  and  _287
REMARK  116  A    between atoms: _287  and  _288
REMARK  117  A    between atoms: _288  and  _289
REMARK  118  A    between atoms: _293  and  _295
REMARK  119  A    between atoms: _295  and  _296
REMARK  120  A    between atoms: _295  and  _298
REMARK  121  A    between atoms: _298  and  _299
REMARK  122  A    between atoms: _302  and  _304
REMARK  123  A    between atoms: _304  and  _305
REMARK  124  A    between atoms: _304  and  _307
REMARK  125  A    between atoms: _307  and  _308
REMARK  126  A    between atoms: _313  and  _315
REMARK  127  A    between atoms: _315  and  _316
REMARK  128  A    between atoms: _315  and  _318
REMARK  129  A    between atoms: _318  and  _319
REMARK  130  A    between atoms: _319  and  _320
REMARK  131  A    between atoms: _325  and  _327
REMARK  132  A    between atoms: _327  and  _328
REMARK  133  A    between atoms: _327  and  _330
REMARK  134  A    between atoms: _330  and  _331
REMARK  135  A    between atoms: _334  and  _336
REMARK  136  A    between atoms: _336  and  _337
REMARK  137  A    between atoms: _336  and  _339
REMARK  138  A    between atoms: _339  and  _340
REMARK  139  A    between atoms: _345  and  _346
REMARK  140  A    between atoms: _348  and  _350
REMARK  141  A    between atoms: _350  and  _351
REMARK  142  A    between atoms: _350  and  _353
REMARK  143  A    between atoms: _353  and  _354
REMARK  144  A    between atoms: _354  and  _355
REMARK  145  A    between atoms: _355  and  _356
REMARK  146  A    between atoms: _365  and  _367
REMARK  147  A    between atoms: _367  and  _368
REMARK  148  A    between atoms: _367  and  _370
REMARK  149  A    between atoms: _370  and  _371
REMARK  150  A    between atoms: _371  and  _372
REMARK  151  A    between atoms: _375  and  _377
REMARK  152  A    between atoms: _377  and  _378
REMARK  153  A    between atoms: _377  and  _380
REMARK  154  A    between atoms: _380  and  _381
REMARK  155  A    between atoms: _383  and  _385
REMARK  156  A    between atoms: _385  and  _386
REMARK  157  A    between atoms: _385  and  _388
REMARK  158  A    between atoms: _388  and  _389
REMARK  159  A    between atoms: _392  and  _394
REMARK  160  A    between atoms: _394  and  _395
REMARK  161  A    between atoms: _394  and  _397
REMARK  162  A    between atoms: _397  and  _398
REMARK  163  A    between atoms: _398  and  _399
REMARK  164  A    between atoms: _399  and  _400
REMARK  165  A    between atoms: _409  and  _411
REMARK  166  A    between atoms: _411  and  _412
REMARK  167  A    between atoms: _411  and  _414
REMARK  168  A    between atoms: _414  and  _415
REMARK  169  A    between atoms: _420  and  _422
REMARK  170  A    between atoms: _422  and  _423
REMARK  171  A    between atoms: _422  and  _425
REMARK  172  A    between atoms: _425  and  _426
REMARK  173  A    between atoms: _429  and  _431
REMARK  174  A    between atoms: _431  and  _432
REMARK  175  A    between atoms: _431  and  _434
REMARK  176  A    between atoms: _434  and  _435
REMARK  177  A    between atoms: _440  and  _441
REMARK  178  A    between atoms: _443  and  _445
REMARK  179  A    between atoms: _445  and  _446
REMARK  180  A    between atoms: _445  and  _448
REMARK  181  A    between atoms: _448  and  _449
REMARK  182  A    between atoms: _452  and  _454
REMARK  183  A    between atoms: _454  and  _455
REMARK  184  A    between atoms: _454  and  _457
REMARK  185  A    between atoms: _457  and  _458
REMARK  186  A    between atoms: _458  and  _459
REMARK  187  A    between atoms: _464  and  _466
REMARK  188  A    between atoms: _466  and  _467
REMARK  189  A    between atoms: _466  and  _469
REMARK  190  A    between atoms: _469  and  _470
REMARK  191  A    between atoms: _470  and  _471
REMARK  192  A    between atoms: _471  and  _472
REMARK  193  A    between atoms: _481  and  _483
REMARK  194  A    between atoms: _483  and  _484
REMARK  195  A    between atoms: _483  and  _486
REMARK  196  A    between atoms: _486  and  _487
REMARK  197  A    between atoms: _487  and  _488
REMARK  198  A    between atoms: _490  and  _492
REMARK  199  A    between atoms: _492  and  _493
REMARK  200  A    between atoms: _492  and  _495
REMARK  201  A    between atoms: _495  and  _496
REMARK  202  A    between atoms: _501  and  _502
REMARK  203  A    between atoms: _504  and  _506
REMARK  204  A    between atoms: _506  and  _507
REMARK  205  A    between atoms: _509  and  _511
REMARK  206  A    between atoms: _511  and  _512
REMARK  207  A    between atoms: _511  and  _514
REMARK  208  A    between atoms: _514  and  _515
REMARK  209  A    between atoms: _515  and  _869
REMARK  210  A    between atoms: _516  and  _518
REMARK  211  A    between atoms: _518  and  _519
REMARK  212  A    between atoms: _518  and  _521
REMARK  213  A    between atoms: _521  and  _522
REMARK  214  A    between atoms: _525  and  _527
REMARK  215  A    between atoms: _527  and  _528
REMARK  216  A    between atoms: _527  and  _530
REMARK  217  A    between atoms: _530  and  _531
REMARK  218  A    between atoms: _531  and  _532
REMARK  219  A    between atoms: _537  and  _539
REMARK  220  A    between atoms: _539  and  _540
REMARK  221  A    between atoms: _539  and  _542
REMARK  222  A    between atoms: _542  and  _543
REMARK  223  A    between atoms: _545  and  _547
REMARK  224  A    between atoms: _547  and  _548
REMARK  225  A    between atoms: _551  and  _553
REMARK  226  A    between atoms: _553  and  _554
REMARK  227  A    between atoms: _553  and  _556
REMARK  228  A    between atoms: _556  and  _557
REMARK  229  A    between atoms: _562  and  _563
REMARK  230  A    between atoms: _565  and  _567
REMARK  231  A    between atoms: _567  and  _568
REMARK  232  A    between atoms: _567  and  _570
REMARK  233  A    between atoms: _570  and  _571
REMARK  234  A    between atoms: _576  and  _577
REMARK  235  A    between atoms: _579  and  _581
REMARK  236  A    between atoms: _581  and  _582
REMARK  237  A    between atoms: _581  and  _584
REMARK  238  A    between atoms: _584  and  _585
REMARK  239  A    between atoms: _588  and  _590
REMARK  240  A    between atoms: _590  and  _591
REMARK  241  A    between atoms: _594  and  _596
REMARK  242  A    between atoms: _596  and  _597
REMARK  243  A    between atoms: _596  and  _599
REMARK  244  A    between atoms: _599  and  _600
REMARK  245  A    between atoms: _610  and  _612
REMARK  246  A    between atoms: _612  and  _613
REMARK  247  A    between atoms: _616  and  _618
REMARK  248  A    between atoms: _618  and  _619
REMARK  249  A    between atoms: _622  and  _624
REMARK  250  A    between atoms: _624  and  _625
REMARK  251  A    between atoms: _624  and  _627
REMARK  252  A    between atoms: _627  and  _628
REMARK  253  A    between atoms: _628  and  _629
REMARK  254  A    between atoms: _634  and  _636
REMARK  255  A    between atoms: _636  and  _637
REMARK  256  A    between atoms: _636  and  _639
REMARK  257  A    between atoms: _639  and  _640
REMARK  258  A    between atoms: _643  and  _645
REMARK  259  A    between atoms: _645  and  _646
REMARK  260  A    between atoms: _645  and  _648
REMARK  261  A    between atoms: _648  and  _649
REMARK  262  A    between atoms: _652  and  _654
REMARK  263  A    between atoms: _654  and  _655
REMARK  264  A    between atoms: _654  and  _657
REMARK  265  A    between atoms: _657  and  _658
REMARK  266  A    between atoms: _658  and  _659
REMARK  267  A    between atoms: _664  and  _666
REMARK  268  A    between atoms: _666  and  _667
REMARK  269  A    between atoms: _666  and  _669
REMARK  270  A    between atoms: _669  and  _670
REMARK  271  A    between atoms: _670  and  _671
REMARK  272  A    between atoms: _671  and  _672
REMARK  273  A    between atoms: _681  and  _683
REMARK  274  A    between atoms: _683  and  _684
REMARK  275  A    between atoms: _683  and  _686
REMARK  276  A    between atoms: _686  and  _687
REMARK  277  A    between atoms: _687  and  _688
REMARK  278  A    between atoms: _688  and  _689
REMARK  279  A    between atoms: _689  and  _690
REMARK  280  A    between atoms: _694  and  _696
REMARK  281  A    between atoms: _696  and  _697
REMARK  282  A    between atoms: _696  and  _699
REMARK  283  A    between atoms: _699  and  _700
REMARK  284  A    between atoms: _710  and  _712
REMARK  285  A    between atoms: _712  and  _713
REMARK  286  A    between atoms: _712  and  _715
REMARK  287  A    between atoms: _715  and  _716
REMARK  288  A    between atoms: _716  and  _717
REMARK  289  A    between atoms: _720  and  _722
REMARK  290  A    between atoms: _722  and  _723
REMARK  291  A    between atoms: _726  and  _728
REMARK  292  A    between atoms: _728  and  _729
REMARK  293  A    between atoms: _732  and  _734
REMARK  294  A    between atoms: _734  and  _735
REMARK  295  A    between atoms: _734  and  _737
REMARK  296  A    between atoms: _737  and  _738
REMARK  297  A    between atoms: _738  and  _739
REMARK  298  A    between atoms: _739  and  _740
REMARK  299  A    between atoms: _749  and  _751
REMARK  300  A    between atoms: _751  and  _752
REMARK  301  A    between atoms: _751  and  _754
REMARK  302  A    between atoms: _754  and  _755
REMARK  303  A    between atoms: _755  and  _756
REMARK  304  A    between atoms: _759  and  _761
REMARK  305  A    between atoms: _761  and  _762
REMARK  306  A    between atoms: _765  and  _767
REMARK  307  A    between atoms: _767  and  _768
REMARK  308  A    between atoms: _767  and  _770
REMARK  309  A    between atoms: _770  and  _771
REMARK  310  A    between atoms: _771  and  _772
REMARK  311  A    between atoms: _775  and  _777
REMARK  312  A    between atoms: _777  and  _778
REMARK  313  A    between atoms: _777  and  _780
REMARK  314  A    between atoms: _780  and  _781
REMARK  315  A    between atoms: _781  and  _782
REMARK  316  A    between atoms: _787  and  _789
REMARK  317  A    between atoms: _789  and  _790
REMARK  318  A    between atoms: _789  and  _792
REMARK  319  A    between atoms: _792  and  _793
REMARK  320  A    between atoms: _803  and  _805
REMARK  321  A    between atoms: _805  and  _806
REMARK  322  A    between atoms: _805  and  _808
REMARK  323  A    between atoms: _808  and  _809
REMARK  324  A    between atoms: _809  and  _810
REMARK  325  A    between atoms: _810  and  _811
REMARK  326  A    between atoms: _820  and  _822
REMARK  327  A    between atoms: _822  and  _823
REMARK  328  A    between atoms: _826  and  _828
REMARK  329  A    between atoms: _828  and  _829
REMARK  330  A    between atoms: _828  and  _831
REMARK  331  A    between atoms: _831  and  _832
REMARK  332  A    between atoms: _837  and  _838
REMARK  333  A    between atoms: _840  and  _842
REMARK  334  A    between atoms: _842  and  _843
REMARK  335  A    between atoms: _842  and  _845
REMARK  336  A    between atoms: _845  and  _846
REMARK  337  A    between atoms: _849  and  _851
REMARK  338  A    between atoms: _851  and  _852
REMARK  339  A    between atoms: _854  and  _856
REMARK  340  A    between atoms: _856  and  _857
REMARK  341  A    between atoms: _856  and  _859
REMARK  342  A    between atoms: _859  and  _860
REMARK  343  A    between atoms: _863  and  _865
REMARK  344  A    between atoms: _865  and  _866
REMARK  345  A    between atoms: _865  and  _868
REMARK  346  A    between atoms: _868  and  _869
REMARK  347  A    between atoms: _870  and  _872
REMARK  348  A    between atoms: _872  and  _873
REMARK  349  A    between atoms: _872  and  _875
REMARK  350  A    between atoms: _878  and  _880
REMARK  351  A    between atoms: _880  and  _881
REMARK  352  A    between atoms: _880  and  _883
REMARK  353  A    between atoms: _883  and  _884
REMARK  354  A    between atoms: _884  and  _885
REMARK  355  A    between atoms: _888  and  _890
REMARK  356  A    between atoms: _890  and  _891
REMARK  357  A    between atoms: _890  and  _893
REMARK  358  A    between atoms: _893  and  _894
REMARK  359  A    between atoms: _904  and  _906
REMARK  360  A    between atoms: _906  and  _907
REMARK  361  A    between atoms: _906  and  _909
REMARK  362  A    between atoms: _909  and  _910
REMARK  363  A    between atoms: _913  and  _915
REMARK  364  A    between atoms: _915  and  _916
REMARK  365  A    between atoms: _915  and  _918
REMARK  366  A    between atoms: _918  and  _919
REMARK  367  A    between atoms: _919  and  _920
REMARK  368  A    between atoms: _920  and  _921
REMARK  369  A    between atoms: _930  and  _932
REMARK  370  A    between atoms: _932  and  _933
REMARK  371  A    between atoms: _932  and  _935
REMARK  372  A    between atoms: _935  and  _936
REMARK  373  A    between atoms: _941  and  _942
REMARK  374  A    between atoms: _944  and  _946
REMARK  375  A    between atoms: _946  and  _947
REMARK  376  A    between atoms: _946  and  _949
REMARK  377  A    between atoms: _949  and  _950
REMARK                            x       y       z     vdW  Elec       q    Type
REMARK                         _______ _______ _______ _____ _____    ______ ____
ROOT
ATOM      1  O   HOH     1      38.449  31.872  34.981  0.00  0.00    +0.000 OA
ENDROOT
TORSDOF 0
REMARK  Name = ../refined-set-2016/1xr9/1xr9_pocket.pdb
REMARK  377 active torsions:
REMARK  status: ('A' for Active; 'I' for Inactive)
REMARK    1  A    between atoms: _1  and  _3
REMARK    2  A    between atoms: _3  and  _4
REMARK    3  A    between atoms: _3  and  _6
REMARK    4  A    between atoms: _6  and  _7
REMARK    5  A    between atoms: _7  and  _8
REMARK    6  A    between atoms: _10  and  _12
REMARK    7  A    between atoms: _12  and  _13
REMARK    8  A    between atoms: _12  and  _15
REMARK    9  A    between atoms: _15  and  _16
REMARK   10  A    between atoms: _16  and  _17
REMARK   11  A    between atoms: _17  and  _18
REMARK   12  A    between atoms: _27  and  _29
REMARK   13  A    between atoms: _29  and  _30
REMARK   14  A    between atoms: _29  and  _32
REMARK   15  A    between atoms: _32  and  _33
REMARK   16  A    between atoms: _38  and  _39
REMARK   17  A    between atoms: _41  and  _43
REMARK   18  A    between atoms: _43  and  _44
REMARK   19  A    between atoms: _43  and  _46
REMARK   20  A    between atoms: _46  and  _47
REMARK   21  A    between atoms: _53  and  _55
REMARK   22  A    between atoms: _55  and  _56
REMARK   23  A    between atoms: _55  and  _58
REMARK   24  A    between atoms: _58  and  _59
REMARK   25  A    between atoms: _64  and  _65
REMARK   26  A    between atoms: _67  and  _69
REMARK   27  A    between atoms: _69  and  _70
REMARK   28  A    between atoms: _69  and  _72
REMARK   29  A    between atoms: _72  and  _73
REMARK   30  A    between atoms: _79  and  _81
REMARK   31  A    between atoms: _81  and  _82
REMARK   32  A    between atoms: _85  and  _87
REMARK   33  A    between atoms: _87  and  _88
REMARK   34  A    between atoms: _87  and  _90
REMARK   35  A    between atoms: _93  and  _95
REMARK   36  A    between atoms: _95  and  _96
REMARK   37  A    between atoms: _98  and  _100
REMARK   38  A    between atoms: _100  and  _101
REMARK   39  A    between atoms: _100  and  _103
REMARK   40  A    between atoms: _106  and  _108
REMARK   41  A    between atoms: _108  and  _109
REMARK   42  A    between atoms: _108  and  _111
REMARK   43  A    between atoms: _111  and  _112
REMARK   44  A    between atoms: _118  and  _120
REMARK   45  A    between atoms: _120  and  _121
REMARK   46  A    between atoms: _120  and  _123
REMARK   47  A    between atoms: _126  and  _128
REMARK   48  A    between atoms: _128  and  _129
REMARK   49  A    between atoms: _128  and  _131
REMARK   50  A    between atoms: _131  and  _132
REMARK   51  A    between atoms: _138  and  _140
REMARK   52  A    between atoms: _140  and  _141
REMARK   53  A    between atoms: _140  and  _143
REMARK   54  A    between atoms: _143  and  _144
REMARK   55  A    between atoms: _144  and  _145
REMARK   56  A    between atoms: _147  and  _149
REMARK   57  A    between atoms: _149  and  _150
REMARK   58  A    between atoms: _149  and  _152
REMARK   59  A    between atoms: _152  and  _153
REMARK   60  A    between atoms: _156  and  _158
REMARK   61  A    between atoms: _158  and  _159
REMARK   62  A    between atoms: _158  and  _161
REMARK   63  A    between atoms: _161  and  _162
REMARK   64  A    between atoms: _162  and  _163
REMARK   65  A    between atoms: _166  and  _168
REMARK   66  A    between atoms: _168  and  _169
REMARK   67  A    between atoms: _168  and  _171
REMARK   68  A    between atoms: _171  and  _172
REMARK   69  A    between atoms: _172  and  _173
REMARK   70  A    between atoms: _176  and  _178
REMARK   71  A    between atoms: _178  and  _179
REMARK   72  A    between atoms: _178  and  _181
REMARK   73  A    between atoms: _181  and  _182
REMARK   74  A    between atoms: _187  and  _188
REMARK   75  A    between atoms: _190  and  _192
REMARK   76  A    between atoms: _192  and  _193
REMARK   77  A    between atoms: _192  and  _195
REMARK   78  A    between atoms: _195  and  _196
REMARK   79  A    between atoms: _206  and  _208
REMARK   80  A    between atoms: _208  and  _209
REMARK   81  A    between atoms: _208  and  _211
REMARK   82  A    between atoms: _211  and  _212
REMARK   83  A    between atoms: _215  and  _217
REMARK   84  A    between atoms: _217  and  _218
REMARK   85  A    between atoms: _217  and  _220
REMARK   86  A    between atoms: _220  and  _221
REMARK   87  A    between atoms: _221  and  _222
REMARK   88  A    between atoms: _222  and  _223
REMARK   89  A    between atoms: _232  and  _234
REMARK   90  A    between atoms: _234  and  _235
REMARK   91  A    between atoms: _234  and  _237
REMARK   92  A    between atoms: _237  and  _238
REMARK   93  A    between atoms: _238  and  _239
REMARK   94  A    between atoms: _242  and  _244
REMARK   95  A    between atoms: _244  and  _245
REMARK   96  A    between atoms: _244  and  _247
REMARK   97  A    between atoms: _247  and  _248
REMARK   98  A    between atoms: _251  and  _253
REMARK   99  A    between atoms: _253  and  _254
REMARK  100  A    between atoms: _253  and  _256
REMARK  101  A    between atoms: _256  and  _257
REMARK  102  A    between atoms: _257  and  _258
REMARK  103  A    between atoms: _263  and  _265
REMARK  104  A    between atoms: _265  and  _266
REMARK  105  A    between atoms: _265  and  _268
REMARK  106  A    between atoms: _268  and  _269
REMARK  107  A    between atoms: _272  and  _274
REMARK  108  A    between atoms: _274  and  _275
REMARK  109  A    between atoms: _274  and  _277
REMARK  110  A    between atoms: _277  and  _278
REMARK  111  A    between atoms: _280  and  _282
REMARK  112  A    between atoms: _282  and  _283
REMARK  113  A    between atoms: _282  and  _285
REMARK  114  A    between atoms: _285  and  _286
REMARK  115  A    between atoms: _286  and  _287
REMARK  116  A    between atoms: _287  and  _288
REMARK  117  A    between atoms: _288  and  _289
REMARK  118  A    between atoms: _293  and  _295
REMARK  119  A    between atoms: _295  and  _296
REMARK  120  A    between atoms: _295  and  _298
REMARK  121  A    between atoms: _298  and  _299
REMARK  122  A    between atoms: _302  and  _304
REMARK  123  A    between atoms: _304  and  _305
REMARK  124  A    between atoms: _304  and  _307
REMARK  125  A    between atoms: _307  and  _308
REMARK  126  A    between atoms: _313  and  _315
REMARK  127  A    between atoms: _315  and  _316
REMARK  128  A    between atoms: _315  and  _318
REMARK  129  A    between atoms: _318  and  _319
REMARK  130  A    between atoms: _319  and  _320
REMARK  131  A    between atoms: _325  and  _327
REMARK  132  A    between atoms: _327  and  _328
REMARK  133  A    between atoms: _327  and  _330
REMARK  134  A    between atoms: _330  and  _331
REMARK  135  A    between atoms: _334  and  _336
REMARK  136  A    between atoms: _336  and  _337
REMARK  137  A    between atoms: _336  and  _339
REMARK  138  A    between atoms: _339  and  _340
REMARK  139  A    between atoms: _345  and  _346
REMARK  140  A    between atoms: _348  and  _350
REMARK  141  A    between atoms: _350  and  _351
REMARK  142  A    between atoms: _350  and  _353
REMARK  143  A    between atoms: _353  and  _354
REMARK  144  A    between atoms: _354  and  _355
REMARK  145  A    between atoms: _355  and  _356
REMARK  146  A    between atoms: _365  and  _367
REMARK  147  A    between atoms: _367  and  _368
REMARK  148  A    between atoms: _367  and  _370
REMARK  149  A    between atoms: _370  and  _371
REMARK  150  A    between atoms: _371  and  _372
REMARK  151  A    between atoms: _375  and  _377
REMARK  152  A    between atoms: _377  and  _378
REMARK  153  A    between atoms: _377  and  _380
REMARK  154  A    between atoms: _380  and  _381
REMARK  155  A    between atoms: _383  and  _385
REMARK  156  A    between atoms: _385  and  _386
REMARK  157  A    between atoms: _385  and  _388
REMARK  158  A    between atoms: _388  and  _389
REMARK  159  A    between atoms: _392  and  _394
REMARK  160  A    between atoms: _394  and  _395
REMARK  161  A    between atoms: _394  and  _397
REMARK  162  A    between atoms: _397  and  _398
REMARK  163  A    between atoms: _398  and  _399
REMARK  164  A    between atoms: _399  and  _400
REMARK  165  A    between atoms: _409  and  _411
REMARK  166  A    between atoms: _411  and  _412
REMARK  167  A    between atoms: _411  and  _414
REMARK  168  A    between atoms: _414  and  _415
REMARK  169  A    between atoms: _420  and  _422
REMARK  170  A    between atoms: _422  and  _423
REMARK  171  A    between atoms: _422  and  _425
REMARK  172  A    between atoms: _425  and  _426
REMARK  173  A    between atoms: _429  and  _431
REMARK  174  A    between atoms: _431  and  _432
REMARK  175  A    between atoms: _431  and  _434
REMARK  176  A    between atoms: _434  and  _435
REMARK  177  A    between atoms: _440  and  _441
REMARK  178  A    between atoms: _443  and  _445
REMARK  179  A    between atoms: _445  and  _446
REMARK  180  A    between atoms: _445  and  _448
REMARK  181  A    between atoms: _448  and  _449
REMARK  182  A    between atoms: _452  and  _454
REMARK  183  A    between atoms: _454  and  _455
REMARK  184  A    between atoms: _454  and  _457
REMARK  185  A    between atoms: _457  and  _458
REMARK  186  A    between atoms: _458  and  _459
REMARK  187  A    between atoms: _464  and  _466
REMARK  188  A    between atoms: _466  and  _467
REMARK  189  A    between atoms: _466  and  _469
REMARK  190  A    between atoms: _469  and  _470
REMARK  191  A    between atoms: _470  and  _471
REMARK  192  A    between atoms: _471  and  _472
REMARK  193  A    between atoms: _481  and  _483
REMARK  194  A    between atoms: _483  and  _484
REMARK  195  A    between atoms: _483  and  _486
REMARK  196  A    between atoms: _486  and  _487
REMARK  197  A    between atoms: _487  and  _488
REMARK  198  A    between atoms: _490  and  _492
REMARK  199  A    between atoms: _492  and  _493
REMARK  200  A    between atoms: _492  and  _495
REMARK  201  A    between atoms: _495  and  _496
REMARK  202  A    between atoms: _501  and  _502
REMARK  203  A    between atoms: _504  and  _506
REMARK  204  A    between atoms: _506  and  _507
REMARK  205  A    between atoms: _509  and  _511
REMARK  206  A    between atoms: _511  and  _512
REMARK  207  A    between atoms: _511  and  _514
REMARK  208  A    between atoms: _514  and  _515
REMARK  209  A    between atoms: _515  and  _869
REMARK  210  A    between atoms: _516  and  _518
REMARK  211  A    between atoms: _518  and  _519
REMARK  212  A    between atoms: _518  and  _521
REMARK  213  A    between atoms: _521  and  _522
REMARK  214  A    between atoms: _525  and  _527
REMARK  215  A    between atoms: _527  and  _528
REMARK  216  A    between atoms: _527  and  _530
REMARK  217  A    between atoms: _530  and  _531
REMARK  218  A    between atoms: _531  and  _532
REMARK  219  A    between atoms: _537  and  _539
REMARK  220  A    between atoms: _539  and  _540
REMARK  221  A    between atoms: _539  and  _542
REMARK  222  A    between atoms: _542  and  _543
REMARK  223  A    between atoms: _545  and  _547
REMARK  224  A    between atoms: _547  and  _548
REMARK  225  A    between atoms: _551  and  _553
REMARK  226  A    between atoms: _553  and  _554
REMARK  227  A    between atoms: _553  and  _556
REMARK  228  A    between atoms: _556  and  _557
REMARK  229  A    between atoms: _562  and  _563
REMARK  230  A    between atoms: _565  and  _567
REMARK  231  A    between atoms: _567  and  _568
REMARK  232  A    between atoms: _567  and  _570
REMARK  233  A    between atoms: _570  and  _571
REMARK  234  A    between atoms: _576  and  _577
REMARK  235  A    between atoms: _579  and  _581
REMARK  236  A    between atoms: _581  and  _582
REMARK  237  A    between atoms: _581  and  _584
REMARK  238  A    between atoms: _584  and  _585
REMARK  239  A    between atoms: _588  and  _590
REMARK  240  A    between atoms: _590  and  _591
REMARK  241  A    between atoms: _594  and  _596
REMARK  242  A    between atoms: _596  and  _597
REMARK  243  A    between atoms: _596  and  _599
REMARK  244  A    between atoms: _599  and  _600
REMARK  245  A    between atoms: _610  and  _612
REMARK  246  A    between atoms: _612  and  _613
REMARK  247  A    between atoms: _616  and  _618
REMARK  248  A    between atoms: _618  and  _619
REMARK  249  A    between atoms: _622  and  _624
REMARK  250  A    between atoms: _624  and  _625
REMARK  251  A    between atoms: _624  and  _627
REMARK  252  A    between atoms: _627  and  _628
REMARK  253  A    between atoms: _628  and  _629
REMARK  254  A    between atoms: _634  and  _636
REMARK  255  A    between atoms: _636  and  _637
REMARK  256  A    between atoms: _636  and  _639
REMARK  257  A    between atoms: _639  and  _640
REMARK  258  A    between atoms: _643  and  _645
REMARK  259  A    between atoms: _645  and  _646
REMARK  260  A    between atoms: _645  and  _648
REMARK  261  A    between atoms: _648  and  _649
REMARK  262  A    between atoms: _652  and  _654
REMARK  263  A    between atoms: _654  and  _655
REMARK  264  A    between atoms: _654  and  _657
REMARK  265  A    between atoms: _657  and  _658
REMARK  266  A    between atoms: _658  and  _659
REMARK  267  A    between atoms: _664  and  _666
REMARK  268  A    between atoms: _666  and  _667
REMARK  269  A    between atoms: _666  and  _669
REMARK  270  A    between atoms: _669  and  _670
REMARK  271  A    between atoms: _670  and  _671
REMARK  272  A    between atoms: _671  and  _672
REMARK  273  A    between atoms: _681  and  _683
REMARK  274  A    between atoms: _683  and  _684
REMARK  275  A    between atoms: _683  and  _686
REMARK  276  A    between atoms: _686  and  _687
REMARK  277  A    between atoms: _687  and  _688
REMARK  278  A    between atoms: _688  and  _689
REMARK  279  A    between atoms: _689  and  _690
REMARK  280  A    between atoms: _694  and  _696
REMARK  281  A    between atoms: _696  and  _697
REMARK  282  A    between atoms: _696  and  _699
REMARK  283  A    between atoms: _699  and  _700
REMARK  284  A    between atoms: _710  and  _712
REMARK  285  A    between atoms: _712  and  _713
REMARK  286  A    between atoms: _712  and  _715
REMARK  287  A    between atoms: _715  and  _716
REMARK  288  A    between atoms: _716  and  _717
REMARK  289  A    between atoms: _720  and  _722
REMARK  290  A    between atoms: _722  and  _723
REMARK  291  A    between atoms: _726  and  _728
REMARK  292  A    between atoms: _728  and  _729
REMARK  293  A    between atoms: _732  and  _734
REMARK  294  A    between atoms: _734  and  _735
REMARK  295  A    between atoms: _734  and  _737
REMARK  296  A    between atoms: _737  and  _738
REMARK  297  A    between atoms: _738  and  _739
REMARK  298  A    between atoms: _739  and  _740
REMARK  299  A    between atoms: _749  and  _751
REMARK  300  A    between atoms: _751  and  _752
REMARK  301  A    between atoms: _751  and  _754
REMARK  302  A    between atoms: _754  and  _755
REMARK  303  A    between atoms: _755  and  _756
REMARK  304  A    between atoms: _759  and  _761
REMARK  305  A    between atoms: _761  and  _762
REMARK  306  A    between atoms: _765  and  _767
REMARK  307  A    between atoms: _767  and  _768
REMARK  308  A    between atoms: _767  and  _770
REMARK  309  A    between atoms: _770  and  _771
REMARK  310  A    between atoms: _771  and  _772
REMARK  311  A    between atoms: _775  and  _777
REMARK  312  A    between atoms: _777  and  _778
REMARK  313  A    between atoms: _777  and  _780
REMARK  314  A    between atoms: _780  and  _781
REMARK  315  A    between atoms: _781  and  _782
REMARK  316  A    between atoms: _787  and  _789
REMARK  317  A    between atoms: _789  and  _790
REMARK  318  A    between atoms: _789  and  _792
REMARK  319  A    between atoms: _792  and  _793
REMARK  320  A    between atoms: _803  and  _805
REMARK  321  A    between atoms: _805  and  _806
REMARK  322  A    between atoms: _805  and  _808
REMARK  323  A    between atoms: _808  and  _809
REMARK  324  A    between atoms: _809  and  _810
REMARK  325  A    between atoms: _810  and  _811
REMARK  326  A    between atoms: _820  and  _822
REMARK  327  A    between atoms: _822  and  _823
REMARK  328  A    between atoms: _826  and  _828
REMARK  329  A    between atoms: _828  and  _829
REMARK  330  A    between atoms: _828  and  _831
REMARK  331  A    between atoms: _831  and  _832
REMARK  332  A    between atoms: _837  and  _838
REMARK  333  A    between atoms: _840  and  _842
REMARK  334  A    between atoms: _842  and  _843
REMARK  335  A    between atoms: _842  and  _845
REMARK  336  A    between atoms: _845  and  _846
REMARK  337  A    between atoms: _849  and  _851
REMARK  338  A    between atoms: _851  and  _852
REMARK  339  A    between atoms: _854  and  _856
REMARK  340  A    between atoms: _856  and  _857
REMARK  341  A    between atoms: _856  and  _859
REMARK  342  A    between atoms: _859  and  _860
REMARK  343  A    between atoms: _863  and  _865
REMARK  344  A    between atoms: _865  and  _866
REMARK  345  A    between atoms: _865  and  _868
REMARK  346  A    between atoms: _868  and  _869
REMARK  347  A    between atoms: _870  and  _872
REMARK  348  A    between atoms: _872  and  _873
REMARK  349  A    between atoms: _872  and  _875
REMARK  350  A    between atoms: _878  and  _880
REMARK  351  A    between atoms: _880  and  _881
REMARK  352  A    between atoms: _880  and  _883
REMARK  353  A    between atoms: _883  and  _884
REMARK  354  A    between atoms: _884  and  _885
REMARK  355  A    between atoms: _888  and  _890
REMARK  356  A    between atoms: _890  and  _891
REMARK  357  A    between atoms: _890  and  _893
REMARK  358  A    between atoms: _893  and  _894
REMARK  359  A    between atoms: _904  and  _906
REMARK  360  A    between atoms: _906  and  _907
REMARK  361  A    between atoms: _906  and  _909
REMARK  362  A    between atoms: _909  and  _910
REMARK  363  A    between atoms: _913  and  _915
REMARK  364  A    between atoms: _915  and  _916
REMARK  365  A    between atoms: _915  and  _918
REMARK  366  A    between atoms: _918  and  _919
REMARK  367  A    between atoms: _919  and  _920
REMARK  368  A    between atoms: _920  and  _921
REMARK  369  A    between atoms: _930  and  _932
REMARK  370  A    between atoms: _932  and  _933
REMARK  371  A    between atoms: _932  and  _935
REMARK  372  A    between atoms: _935  and  _936
REMARK  373  A    between atoms: _941  and  _942
REMARK  374  A    between atoms: _944  and  _946
REMARK  375  A    between atoms: _946  and  _947
REMARK  376  A    between atoms: _946  and  _949
REMARK  377  A    between atoms: _949  and  _950
REMARK                            x       y       z     vdW  Elec       q    Type
REMARK                         _______ _______ _______ _____ _____    ______ ____
ROOT
ATOM      1  O   HOH     1      41.807  31.711  28.399  0.00  0.00    +0.000 OA
ENDROOT
TORSDOF 0
REMARK  Name = ../refined-set-2016/1xr9/1xr9_pocket.pdb
REMARK  377 active torsions:
REMARK  status: ('A' for Active; 'I' for Inactive)
REMARK    1  A    between atoms: _1  and  _3
REMARK    2  A    between atoms: _3  and  _4
REMARK    3  A    between atoms: _3  and  _6
REMARK    4  A    between atoms: _6  and  _7
REMARK    5  A    between atoms: _7  and  _8
REMARK    6  A    between atoms: _10  and  _12
REMARK    7  A    between atoms: _12  and  _13
REMARK    8  A    between atoms: _12  and  _15
REMARK    9  A    between atoms: _15  and  _16
REMARK   10  A    between atoms: _16  and  _17
REMARK   11  A    between atoms: _17  and  _18
REMARK   12  A    between atoms: _27  and  _29
REMARK   13  A    between atoms: _29  and  _30
REMARK   14  A    between atoms: _29  and  _32
REMARK   15  A    between atoms: _32  and  _33
REMARK   16  A    between atoms: _38  and  _39
REMARK   17  A    between atoms: _41  and  _43
REMARK   18  A    between atoms: _43  and  _44
REMARK   19  A    between atoms: _43  and  _46
REMARK   20  A    between atoms: _46  and  _47
REMARK   21  A    between atoms: _53  and  _55
REMARK   22  A    between atoms: _55  and  _56
REMARK   23  A    between atoms: _55  and  _58
REMARK   24  A    between atoms: _58  and  _59
REMARK   25  A    between atoms: _64  and  _65
REMARK   26  A    between atoms: _67  and  _69
REMARK   27  A    between atoms: _69  and  _70
REMARK   28  A    between atoms: _69  and  _72
REMARK   29  A    between atoms: _72  and  _73
REMARK   30  A    between atoms: _79  and  _81
REMARK   31  A    between atoms: _81  and  _82
REMARK   32  A    between atoms: _85  and  _87
REMARK   33  A    between atoms: _87  and  _88
REMARK   34  A    between atoms: _87  and  _90
REMARK   35  A    between atoms: _93  and  _95
REMARK   36  A    between atoms: _95  and  _96
REMARK   37  A    between atoms: _98  and  _100
REMARK   38  A    between atoms: _100  and  _101
REMARK   39  A    between atoms: _100  and  _103
REMARK   40  A    between atoms: _106  and  _108
REMARK   41  A    between atoms: _108  and  _109
REMARK   42  A    between atoms: _108  and  _111
REMARK   43  A    between atoms: _111  and  _112
REMARK   44  A    between atoms: _118  and  _120
REMARK   45  A    between atoms: _120  and  _121
REMARK   46  A    between atoms: _120  and  _123
REMARK   47  A    between atoms: _126  and  _128
REMARK   48  A    between atoms: _128  and  _129
REMARK   49  A    between atoms: _128  and  _131
REMARK   50  A    between atoms: _131  and  _132
REMARK   51  A    between atoms: _138  and  _140
REMARK   52  A    between atoms: _140  and  _141
REMARK   53  A    between atoms: _140  and  _143
REMARK   54  A    between atoms: _143  and  _144
REMARK   55  A    between atoms: _144  and  _145
REMARK   56  A    between atoms: _147  and  _149
REMARK   57  A    between atoms: _149  and  _150
REMARK   58  A    between atoms: _149  and  _152
REMARK   59  A    between atoms: _152  and  _153
REMARK   60  A    between atoms: _156  and  _158
REMARK   61  A    between atoms: _158  and  _159
REMARK   62  A    between atoms: _158  and  _161
REMARK   63  A    between atoms: _161  and  _162
REMARK   64  A    between atoms: _162  and  _163
REMARK   65  A    between atoms: _166  and  _168
REMARK   66  A    between atoms: _168  and  _169
REMARK   67  A    between atoms: _168  and  _171
REMARK   68  A    between atoms: _171  and  _172
REMARK   69  A    between atoms: _172  and  _173
REMARK   70  A    between atoms: _176  and  _178
REMARK   71  A    between atoms: _178  and  _179
REMARK   72  A    between atoms: _178  and  _181
REMARK   73  A    between atoms: _181  and  _182
REMARK   74  A    between atoms: _187  and  _188
REMARK   75  A    between atoms: _190  and  _192
REMARK   76  A    between atoms: _192  and  _193
REMARK   77  A    between atoms: _192  and  _195
REMARK   78  A    between atoms: _195  and  _196
REMARK   79  A    between atoms: _206  and  _208
REMARK   80  A    between atoms: _208  and  _209
REMARK   81  A    between atoms: _208  and  _211
REMARK   82  A    between atoms: _211  and  _212
REMARK   83  A    between atoms: _215  and  _217
REMARK   84  A    between atoms: _217  and  _218
REMARK   85  A    between atoms: _217  and  _220
REMARK   86  A    between atoms: _220  and  _221
REMARK   87  A    between atoms: _221  and  _222
REMARK   88  A    between atoms: _222  and  _223
REMARK   89  A    between atoms: _232  and  _234
REMARK   90  A    between atoms: _234  and  _235
REMARK   91  A    between atoms: _234  and  _237
REMARK   92  A    between atoms: _237  and  _238
REMARK   93  A    between atoms: _238  and  _239
REMARK   94  A    between atoms: _242  and  _244
REMARK   95  A    between atoms: _244  and  _245
REMARK   96  A    between atoms: _244  and  _247
REMARK   97  A    between atoms: _247  and  _248
REMARK   98  A    between atoms: _251  and  _253
REMARK   99  A    between atoms: _253  and  _254
REMARK  100  A    between atoms: _253  and  _256
REMARK  101  A    between atoms: _256  and  _257
REMARK  102  A    between atoms: _257  and  _258
REMARK  103  A    between atoms: _263  and  _265
REMARK  104  A    between atoms: _265  and  _266
REMARK  105  A    between atoms: _265  and  _268
REMARK  106  A    between atoms: _268  and  _269
REMARK  107  A    between atoms: _272  and  _274
REMARK  108  A    between atoms: _274  and  _275
REMARK  109  A    between atoms: _274  and  _277
REMARK  110  A    between atoms: _277  and  _278
REMARK  111  A    between atoms: _280  and  _282
REMARK  112  A    between atoms: _282  and  _283
REMARK  113  A    between atoms: _282  and  _285
REMARK  114  A    between atoms: _285  and  _286
REMARK  115  A    between atoms: _286  and  _287
REMARK  116  A    between atoms: _287  and  _288
REMARK  117  A    between atoms: _288  and  _289
REMARK  118  A    between atoms: _293  and  _295
REMARK  119  A    between atoms: _295  and  _296
REMARK  120  A    between atoms: _295  and  _298
REMARK  121  A    between atoms: _298  and  _299
REMARK  122  A    between atoms: _302  and  _304
REMARK  123  A    between atoms: _304  and  _305
REMARK  124  A    between atoms: _304  and  _307
REMARK  125  A    between atoms: _307  and  _308
REMARK  126  A    between atoms: _313  and  _315
REMARK  127  A    between atoms: _315  and  _316
REMARK  128  A    between atoms: _315  and  _318
REMARK  129  A    between atoms: _318  and  _319
REMARK  130  A    between atoms: _319  and  _320
REMARK  131  A    between atoms: _325  and  _327
REMARK  132  A    between atoms: _327  and  _328
REMARK  133  A    between atoms: _327  and  _330
REMARK  134  A    between atoms: _330  and  _331
REMARK  135  A    between atoms: _334  and  _336
REMARK  136  A    between atoms: _336  and  _337
REMARK  137  A    between atoms: _336  and  _339
REMARK  138  A    between atoms: _339  and  _340
REMARK  139  A    between atoms: _345  and  _346
REMARK  140  A    between atoms: _348  and  _350
REMARK  141  A    between atoms: _350  and  _351
REMARK  142  A    between atoms: _350  and  _353
REMARK  143  A    between atoms: _353  and  _354
REMARK  144  A    between atoms: _354  and  _355
REMARK  145  A    between atoms: _355  and  _356
REMARK  146  A    between atoms: _365  and  _367
REMARK  147  A    between atoms: _367  and  _368
REMARK  148  A    between atoms: _367  and  _370
REMARK  149  A    between atoms: _370  and  _371
REMARK  150  A    between atoms: _371  and  _372
REMARK  151  A    between atoms: _375  and  _377
REMARK  152  A    between atoms: _377  and  _378
REMARK  153  A    between atoms: _377  and  _380
REMARK  154  A    between atoms: _380  and  _381
REMARK  155  A    between atoms: _383  and  _385
REMARK  156  A    between atoms: _385  and  _386
REMARK  157  A    between atoms: _385  and  _388
REMARK  158  A    between atoms: _388  and  _389
REMARK  159  A    between atoms: _392  and  _394
REMARK  160  A    between atoms: _394  and  _395
REMARK  161  A    between atoms: _394  and  _397
REMARK  162  A    between atoms: _397  and  _398
REMARK  163  A    between atoms: _398  and  _399
REMARK  164  A    between atoms: _399  and  _400
REMARK  165  A    between atoms: _409  and  _411
REMARK  166  A    between atoms: _411  and  _412
REMARK  167  A    between atoms: _411  and  _414
REMARK  168  A    between atoms: _414  and  _415
REMARK  169  A    between atoms: _420  and  _422
REMARK  170  A    between atoms: _422  and  _423
REMARK  171  A    between atoms: _422  and  _425
REMARK  172  A    between atoms: _425  and  _426
REMARK  173  A    between atoms: _429  and  _431
REMARK  174  A    between atoms: _431  and  _432
REMARK  175  A    between atoms: _431  and  _434
REMARK  176  A    between atoms: _434  and  _435
REMARK  177  A    between atoms: _440  and  _441
REMARK  178  A    between atoms: _443  and  _445
REMARK  179  A    between atoms: _445  and  _446
REMARK  180  A    between atoms: _445  and  _448
REMARK  181  A    between atoms: _448  and  _449
REMARK  182  A    between atoms: _452  and  _454
REMARK  183  A    between atoms: _454  and  _455
REMARK  184  A    between atoms: _454  and  _457
REMARK  185  A    between atoms: _457  and  _458
REMARK  186  A    between atoms: _458  and  _459
REMARK  187  A    between atoms: _464  and  _466
REMARK  188  A    between atoms: _466  and  _467
REMARK  189  A    between atoms: _466  and  _469
REMARK  190  A    between atoms: _469  and  _470
REMARK  191  A    between atoms: _470  and  _471
REMARK  192  A    between atoms: _471  and  _472
REMARK  193  A    between atoms: _481  and  _483
REMARK  194  A    between atoms: _483  and  _484
REMARK  195  A    between atoms: _483  and  _486
REMARK  196  A    between atoms: _486  and  _487
REMARK  197  A    between atoms: _487  and  _488
REMARK  198  A    between atoms: _490  and  _492
REMARK  199  A    between atoms: _492  and  _493
REMARK  200  A    between atoms: _492  and  _495
REMARK  201  A    between atoms: _495  and  _496
REMARK  202  A    between atoms: _501  and  _502
REMARK  203  A    between atoms: _504  and  _506
REMARK  204  A    between atoms: _506  and  _507
REMARK  205  A    between atoms: _509  and  _511
REMARK  206  A    between atoms: _511  and  _512
REMARK  207  A    between atoms: _511  and  _514
REMARK  208  A    between atoms: _514  and  _515
REMARK  209  A    between atoms: _515  and  _869
REMARK  210  A    between atoms: _516  and  _518
REMARK  211  A    between atoms: _518  and  _519
REMARK  212  A    between atoms: _518  and  _521
REMARK  213  A    between atoms: _521  and  _522
REMARK  214  A    between atoms: _525  and  _527
REMARK  215  A    between atoms: _527  and  _528
REMARK  216  A    between atoms: _527  and  _530
REMARK  217  A    between atoms: _530  and  _531
REMARK  218  A    between atoms: _531  and  _532
REMARK  219  A    between atoms: _537  and  _539
REMARK  220  A    between atoms: _539  and  _540
REMARK  221  A    between atoms: _539  and  _542
REMARK  222  A    between atoms: _542  and  _543
REMARK  223  A    between atoms: _545  and  _547
REMARK  224  A    between atoms: _547  and  _548
REMARK  225  A    between atoms: _551  and  _553
REMARK  226  A    between atoms: _553  and  _554
REMARK  227  A    between atoms: _553  and  _556
REMARK  228  A    between atoms: _556  and  _557
REMARK  229  A    between atoms: _562  and  _563
REMARK  230  A    between atoms: _565  and  _567
REMARK  231  A    between atoms: _567  and  _568
REMARK  232  A    between atoms: _567  and  _570
REMARK  233  A    between atoms: _570  and  _571
REMARK  234  A    between atoms: _576  and  _577
REMARK  235  A    between atoms: _579  and  _581
REMARK  236  A    between atoms: _581  and  _582
REMARK  237  A    between atoms: _581  and  _584
REMARK  238  A    between atoms: _584  and  _585
REMARK  239  A    between atoms: _588  and  _590
REMARK  240  A    between atoms: _590  and  _591
REMARK  241  A    between atoms: _594  and  _596
REMARK  242  A    between atoms: _596  and  _597
REMARK  243  A    between atoms: _596  and  _599
REMARK  244  A    between atoms: _599  and  _600
REMARK  245  A    between atoms: _610  and  _612
REMARK  246  A    between atoms: _612  and  _613
REMARK  247  A    between atoms: _616  and  _618
REMARK  248  A    between atoms: _618  and  _619
REMARK  249  A    between atoms: _622  and  _624
REMARK  250  A    between atoms: _624  and  _625
REMARK  251  A    between atoms: _624  and  _627
REMARK  252  A    between atoms: _627  and  _628
REMARK  253  A    between atoms: _628  and  _629
REMARK  254  A    between atoms: _634  and  _636
REMARK  255  A    between atoms: _636  and  _637
REMARK  256  A    between atoms: _636  and  _639
REMARK  257  A    between atoms: _639  and  _640
REMARK  258  A    between atoms: _643  and  _645
REMARK  259  A    between atoms: _645  and  _646
REMARK  260  A    between atoms: _645  and  _648
REMARK  261  A    between atoms: _648  and  _649
REMARK  262  A    between atoms: _652  and  _654
REMARK  263  A    between atoms: _654  and  _655
REMARK  264  A    between atoms: _654  and  _657
REMARK  265  A    between atoms: _657  and  _658
REMARK  266  A    between atoms: _658  and  _659
REMARK  267  A    between atoms: _664  and  _666
REMARK  268  A    between atoms: _666  and  _667
REMARK  269  A    between atoms: _666  and  _669
REMARK  270  A    between atoms: _669  and  _670
REMARK  271  A    between atoms: _670  and  _671
REMARK  272  A    between atoms: _671  and  _672
REMARK  273  A    between atoms: _681  and  _683
REMARK  274  A    between atoms: _683  and  _684
REMARK  275  A    between atoms: _683  and  _686
REMARK  276  A    between atoms: _686  and  _687
REMARK  277  A    between atoms: _687  and  _688
REMARK  278  A    between atoms: _688  and  _689
REMARK  279  A    between atoms: _689  and  _690
REMARK  280  A    between atoms: _694  and  _696
REMARK  281  A    between atoms: _696  and  _697
REMARK  282  A    between atoms: _696  and  _699
REMARK  283  A    between atoms: _699  and  _700
REMARK  284  A    between atoms: _710  and  _712
REMARK  285  A    between atoms: _712  and  _713
REMARK  286  A    between atoms: _712  and  _715
REMARK  287  A    between atoms: _715  and  _716
REMARK  288  A    between atoms: _716  and  _717
REMARK  289  A    between atoms: _720  and  _722
REMARK  290  A    between atoms: _722  and  _723
REMARK  291  A    between atoms: _726  and  _728
REMARK  292  A    between atoms: _728  and  _729
REMARK  293  A    between atoms: _732  and  _734
REMARK  294  A    between atoms: _734  and  _735
REMARK  295  A    between atoms: _734  and  _737
REMARK  296  A    between atoms: _737  and  _738
REMARK  297  A    between atoms: _738  and  _739
REMARK  298  A    between atoms: _739  and  _740
REMARK  299  A    between atoms: _749  and  _751
REMARK  300  A    between atoms: _751  and  _752
REMARK  301  A    between atoms: _751  and  _754
REMARK  302  A    between atoms: _754  and  _755
REMARK  303  A    between atoms: _755  and  _756
REMARK  304  A    between atoms: _759  and  _761
REMARK  305  A    between atoms: _761  and  _762
REMARK  306  A    between atoms: _765  and  _767
REMARK  307  A    between atoms: _767  and  _768
REMARK  308  A    between atoms: _767  and  _770
REMARK  309  A    between atoms: _770  and  _771
REMARK  310  A    between atoms: _771  and  _772
REMARK  311  A    between atoms: _775  and  _777
REMARK  312  A    between atoms: _777  and  _778
REMARK  313  A    between atoms: _777  and  _780
REMARK  314  A    between atoms: _780  and  _781
REMARK  315  A    between atoms: _781  and  _782
REMARK  316  A    between atoms: _787  and  _789
REMARK  317  A    between atoms: _789  and  _790
REMARK  318  A    between atoms: _789  and  _792
REMARK  319  A    between atoms: _792  and  _793
REMARK  320  A    between atoms: _803  and  _805
REMARK  321  A    between atoms: _805  and  _806
REMARK  322  A    between atoms: _805  and  _808
REMARK  323  A    between atoms: _808  and  _809
REMARK  324  A    between atoms: _809  and  _810
REMARK  325  A    between atoms: _810  and  _811
REMARK  326  A    between atoms: _820  and  _822
REMARK  327  A    between atoms: _822  and  _823
REMARK  328  A    between atoms: _826  and  _828
REMARK  329  A    between atoms: _828  and  _829
REMARK  330  A    between atoms: _828  and  _831
REMARK  331  A    between atoms: _831  and  _832
REMARK  332  A    between atoms: _837  and  _838
REMARK  333  A    between atoms: _840  and  _842
REMARK  334  A    between atoms: _842  and  _843
REMARK  335  A    between atoms: _842  and  _845
REMARK  336  A    between atoms: _845  and  _846
REMARK  337  A    between atoms: _849  and  _851
REMARK  338  A    between atoms: _851  and  _852
REMARK  339  A    between atoms: _854  and  _856
REMARK  340  A    between atoms: _856  and  _857
REMARK  341  A    between atoms: _856  and  _859
REMARK  342  A    between atoms: _859  and  _860
REMARK  343  A    between atoms: _863  and  _865
REMARK  344  A    between atoms: _865  and  _866
REMARK  345  A    between atoms: _865  and  _868
REMARK  346  A    between atoms: _868  and  _869
REMARK  347  A    between atoms: _870  and  _872
REMARK  348  A    between atoms: _872  and  _873
REMARK  349  A    between atoms: _872  and  _875
REMARK  350  A    between atoms: _878  and  _880
REMARK  351  A    between atoms: _880  and  _881
REMARK  352  A    between atoms: _880  and  _883
REMARK  353  A    between atoms: _883  and  _884
REMARK  354  A    between atoms: _884  and  _885
REMARK  355  A    between atoms: _888  and  _890
REMARK  356  A    between atoms: _890  and  _891
REMARK  357  A    between atoms: _890  and  _893
REMARK  358  A    between atoms: _893  and  _894
REMARK  359  A    between atoms: _904  and  _906
REMARK  360  A    between atoms: _906  and  _907
REMARK  361  A    between atoms: _906  and  _909
REMARK  362  A    between atoms: _909  and  _910
REMARK  363  A    between atoms: _913  and  _915
REMARK  364  A    between atoms: _915  and  _916
REMARK  365  A    between atoms: _915  and  _918
REMARK  366  A    between atoms: _918  and  _919
REMARK  367  A    between atoms: _919  and  _920
REMARK  368  A    between atoms: _920  and  _921
REMARK  369  A    between atoms: _930  and  _932
REMARK  370  A    between atoms: _932  and  _933
REMARK  371  A    between atoms: _932  and  _935
REMARK  372  A    between atoms: _935  and  _936
REMARK  373  A    between atoms: _941  and  _942
REMARK  374  A    between atoms: _944  and  _946
REMARK  375  A    between atoms: _946  and  _947
REMARK  376  A    between atoms: _946  and  _949
REMARK  377  A    between atoms: _949  and  _950
REMARK                            x       y       z     vdW  Elec       q    Type
REMARK                         _______ _______ _______ _____ _____    ______ ____
ROOT
ATOM      1  O   HOH     1      28.775  26.017  33.633  0.00  0.00    +0.000 OA
ENDROOT
TORSDOF 0
REMARK  Name = ../refined-set-2016/1xr9/1xr9_pocket.pdb
REMARK  377 active torsions:
REMARK  status: ('A' for Active; 'I' for Inactive)
REMARK    1  A    between atoms: _1  and  _3
REMARK    2  A    between atoms: _3  and  _4
REMARK    3  A    between atoms: _3  and  _6
REMARK    4  A    between atoms: _6  and  _7
REMARK    5  A    between atoms: _7  and  _8
REMARK    6  A    between atoms: _10  and  _12
REMARK    7  A    between atoms: _12  and  _13
REMARK    8  A    between atoms: _12  and  _15
REMARK    9  A    between atoms: _15  and  _16
REMARK   10  A    between atoms: _16  and  _17
REMARK   11  A    between atoms: _17  and  _18
REMARK   12  A    between atoms: _27  and  _29
REMARK   13  A    between atoms: _29  and  _30
REMARK   14  A    between atoms: _29  and  _32
REMARK   15  A    between atoms: _32  and  _33
REMARK   16  A    between atoms: _38  and  _39
REMARK   17  A    between atoms: _41  and  _43
REMARK   18  A    between atoms: _43  and  _44
REMARK   19  A    between atoms: _43  and  _46
REMARK   20  A    between atoms: _46  and  _47
REMARK   21  A    between atoms: _53  and  _55
REMARK   22  A    between atoms: _55  and  _56
REMARK   23  A    between atoms: _55  and  _58
REMARK   24  A    between atoms: _58  and  _59
REMARK   25  A    between atoms: _64  and  _65
REMARK   26  A    between atoms: _67  and  _69
REMARK   27  A    between atoms: _69  and  _70
REMARK   28  A    between atoms: _69  and  _72
REMARK   29  A    between atoms: _72  and  _73
REMARK   30  A    between atoms: _79  and  _81
REMARK   31  A    between atoms: _81  and  _82
REMARK   32  A    between atoms: _85  and  _87
REMARK   33  A    between atoms: _87  and  _88
REMARK   34  A    between atoms: _87  and  _90
REMARK   35  A    between atoms: _93  and  _95
REMARK   36  A    between atoms: _95  and  _96
REMARK   37  A    between atoms: _98  and  _100
REMARK   38  A    between atoms: _100  and  _101
REMARK   39  A    between atoms: _100  and  _103
REMARK   40  A    between atoms: _106  and  _108
REMARK   41  A    between atoms: _108  and  _109
REMARK   42  A    between atoms: _108  and  _111
REMARK   43  A    between atoms: _111  and  _112
REMARK   44  A    between atoms: _118  and  _120
REMARK   45  A    between atoms: _120  and  _121
REMARK   46  A    between atoms: _120  and  _123
REMARK   47  A    between atoms: _126  and  _128
REMARK   48  A    between atoms: _128  and  _129
REMARK   49  A    between atoms: _128  and  _131
REMARK   50  A    between atoms: _131  and  _132
REMARK   51  A    between atoms: _138  and  _140
REMARK   52  A    between atoms: _140  and  _141
REMARK   53  A    between atoms: _140  and  _143
REMARK   54  A    between atoms: _143  and  _144
REMARK   55  A    between atoms: _144  and  _145
REMARK   56  A    between atoms: _147  and  _149
REMARK   57  A    between atoms: _149  and  _150
REMARK   58  A    between atoms: _149  and  _152
REMARK   59  A    between atoms: _152  and  _153
REMARK   60  A    between atoms: _156  and  _158
REMARK   61  A    between atoms: _158  and  _159
REMARK   62  A    between atoms: _158  and  _161
REMARK   63  A    between atoms: _161  and  _162
REMARK   64  A    between atoms: _162  and  _163
REMARK   65  A    between atoms: _166  and  _168
REMARK   66  A    between atoms: _168  and  _169
REMARK   67  A    between atoms: _168  and  _171
REMARK   68  A    between atoms: _171  and  _172
REMARK   69  A    between atoms: _172  and  _173
REMARK   70  A    between atoms: _176  and  _178
REMARK   71  A    between atoms: _178  and  _179
REMARK   72  A    between atoms: _178  and  _181
REMARK   73  A    between atoms: _181  and  _182
REMARK   74  A    between atoms: _187  and  _188
REMARK   75  A    between atoms: _190  and  _192
REMARK   76  A    between atoms: _192  and  _193
REMARK   77  A    between atoms: _192  and  _195
REMARK   78  A    between atoms: _195  and  _196
REMARK   79  A    between atoms: _206  and  _208
REMARK   80  A    between atoms: _208  and  _209
REMARK   81  A    between atoms: _208  and  _211
REMARK   82  A    between atoms: _211  and  _212
REMARK   83  A    between atoms: _215  and  _217
REMARK   84  A    between atoms: _217  and  _218
REMARK   85  A    between atoms: _217  and  _220
REMARK   86  A    between atoms: _220  and  _221
REMARK   87  A    between atoms: _221  and  _222
REMARK   88  A    between atoms: _222  and  _223
REMARK   89  A    between atoms: _232  and  _234
REMARK   90  A    between atoms: _234  and  _235
REMARK   91  A    between atoms: _234  and  _237
REMARK   92  A    between atoms: _237  and  _238
REMARK   93  A    between atoms: _238  and  _239
REMARK   94  A    between atoms: _242  and  _244
REMARK   95  A    between atoms: _244  and  _245
REMARK   96  A    between atoms: _244  and  _247
REMARK   97  A    between atoms: _247  and  _248
REMARK   98  A    between atoms: _251  and  _253
REMARK   99  A    between atoms: _253  and  _254
REMARK  100  A    between atoms: _253  and  _256
REMARK  101  A    between atoms: _256  and  _257
REMARK  102  A    between atoms: _257  and  _258
REMARK  103  A    between atoms: _263  and  _265
REMARK  104  A    between atoms: _265  and  _266
REMARK  105  A    between atoms: _265  and  _268
REMARK  106  A    between atoms: _268  and  _269
REMARK  107  A    between atoms: _272  and  _274
REMARK  108  A    between atoms: _274  and  _275
REMARK  109  A    between atoms: _274  and  _277
REMARK  110  A    between atoms: _277  and  _278
REMARK  111  A    between atoms: _280  and  _282
REMARK  112  A    between atoms: _282  and  _283
REMARK  113  A    between atoms: _282  and  _285
REMARK  114  A    between atoms: _285  and  _286
REMARK  115  A    between atoms: _286  and  _287
REMARK  116  A    between atoms: _287  and  _288
REMARK  117  A    between atoms: _288  and  _289
REMARK  118  A    between atoms: _293  and  _295
REMARK  119  A    between atoms: _295  and  _296
REMARK  120  A    between atoms: _295  and  _298
REMARK  121  A    between atoms: _298  and  _299
REMARK  122  A    between atoms: _302  and  _304
REMARK  123  A    between atoms: _304  and  _305
REMARK  124  A    between atoms: _304  and  _307
REMARK  125  A    between atoms: _307  and  _308
REMARK  126  A    between atoms: _313  and  _315
REMARK  127  A    between atoms: _315  and  _316
REMARK  128  A    between atoms: _315  and  _318
REMARK  129  A    between atoms: _318  and  _319
REMARK  130  A    between atoms: _319  and  _320
REMARK  131  A    between atoms: _325  and  _327
REMARK  132  A    between atoms: _327  and  _328
REMARK  133  A    between atoms: _327  and  _330
REMARK  134  A    between atoms: _330  and  _331
REMARK  135  A    between atoms: _334  and  _336
REMARK  136  A    between atoms: _336  and  _337
REMARK  137  A    between atoms: _336  and  _339
REMARK  138  A    between atoms: _339  and  _340
REMARK  139  A    between atoms: _345  and  _346
REMARK  140  A    between atoms: _348  and  _350
REMARK  141  A    between atoms: _350  and  _351
REMARK  142  A    between atoms: _350  and  _353
REMARK  143  A    between atoms: _353  and  _354
REMARK  144  A    between atoms: _354  and  _355
REMARK  145  A    between atoms: _355  and  _356
REMARK  146  A    between atoms: _365  and  _367
REMARK  147  A    between atoms: _367  and  _368
REMARK  148  A    between atoms: _367  and  _370
REMARK  149  A    between atoms: _370  and  _371
REMARK  150  A    between atoms: _371  and  _372
REMARK  151  A    between atoms: _375  and  _377
REMARK  152  A    between atoms: _377  and  _378
REMARK  153  A    between atoms: _377  and  _380
REMARK  154  A    between atoms: _380  and  _381
REMARK  155  A    between atoms: _383  and  _385
REMARK  156  A    between atoms: _385  and  _386
REMARK  157  A    between atoms: _385  and  _388
REMARK  158  A    between atoms: _388  and  _389
REMARK  159  A    between atoms: _392  and  _394
REMARK  160  A    between atoms: _394  and  _395
REMARK  161  A    between atoms: _394  and  _397
REMARK  162  A    between atoms: _397  and  _398
REMARK  163  A    between atoms: _398  and  _399
REMARK  164  A    between atoms: _399  and  _400
REMARK  165  A    between atoms: _409  and  _411
REMARK  166  A    between atoms: _411  and  _412
REMARK  167  A    between atoms: _411  and  _414
REMARK  168  A    between atoms: _414  and  _415
REMARK  169  A    between atoms: _420  and  _422
REMARK  170  A    between atoms: _422  and  _423
REMARK  171  A    between atoms: _422  and  _425
REMARK  172  A    between atoms: _425  and  _426
REMARK  173  A    between atoms: _429  and  _431
REMARK  174  A    between atoms: _431  and  _432
REMARK  175  A    between atoms: _431  and  _434
REMARK  176  A    between atoms: _434  and  _435
REMARK  177  A    between atoms: _440  and  _441
REMARK  178  A    between atoms: _443  and  _445
REMARK  179  A    between atoms: _445  and  _446
REMARK  180  A    between atoms: _445  and  _448
REMARK  181  A    between atoms: _448  and  _449
REMARK  182  A    between atoms: _452  and  _454
REMARK  183  A    between atoms: _454  and  _455
REMARK  184  A    between atoms: _454  and  _457
REMARK  185  A    between atoms: _457  and  _458
REMARK  186  A    between atoms: _458  and  _459
REMARK  187  A    between atoms: _464  and  _466
REMARK  188  A    between atoms: _466  and  _467
REMARK  189  A    between atoms: _466  and  _469
REMARK  190  A    between atoms: _469  and  _470
REMARK  191  A    between atoms: _470  and  _471
REMARK  192  A    between atoms: _471  and  _472
REMARK  193  A    between atoms: _481  and  _483
REMARK  194  A    between atoms: _483  and  _484
REMARK  195  A    between atoms: _483  and  _486
REMARK  196  A    between atoms: _486  and  _487
REMARK  197  A    between atoms: _487  and  _488
REMARK  198  A    between atoms: _490  and  _492
REMARK  199  A    between atoms: _492  and  _493
REMARK  200  A    between atoms: _492  and  _495
REMARK  201  A    between atoms: _495  and  _496
REMARK  202  A    between atoms: _501  and  _502
REMARK  203  A    between atoms: _504  and  _506
REMARK  204  A    between atoms: _506  and  _507
REMARK  205  A    between atoms: _509  and  _511
REMARK  206  A    between atoms: _511  and  _512
REMARK  207  A    between atoms: _511  and  _514
REMARK  208  A    between atoms: _514  and  _515
REMARK  209  A    between atoms: _515  and  _869
REMARK  210  A    between atoms: _516  and  _518
REMARK  211  A    between atoms: _518  and  _519
REMARK  212  A    between atoms: _518  and  _521
REMARK  213  A    between atoms: _521  and  _522
REMARK  214  A    between atoms: _525  and  _527
REMARK  215  A    between atoms: _527  and  _528
REMARK  216  A    between atoms: _527  and  _530
REMARK  217  A    between atoms: _530  and  _531
REMARK  218  A    between atoms: _531  and  _532
REMARK  219  A    between atoms: _537  and  _539
REMARK  220  A    between atoms: _539  and  _540
REMARK  221  A    between atoms: _539  and  _542
REMARK  222  A    between atoms: _542  and  _543
REMARK  223  A    between atoms: _545  and  _547
REMARK  224  A    between atoms: _547  and  _548
REMARK  225  A    between atoms: _551  and  _553
REMARK  226  A    between atoms: _553  and  _554
REMARK  227  A    between atoms: _553  and  _556
REMARK  228  A    between atoms: _556  and  _557
REMARK  229  A    between atoms: _562  and  _563
REMARK  230  A    between atoms: _565  and  _567
REMARK  231  A    between atoms: _567  and  _568
REMARK  232  A    between atoms: _567  and  _570
REMARK  233  A    between atoms: _570  and  _571
REMARK  234  A    between atoms: _576  and  _577
REMARK  235  A    between atoms: _579  and  _581
REMARK  236  A    between atoms: _581  and  _582
REMARK  237  A    between atoms: _581  and  _584
REMARK  238  A    between atoms: _584  and  _585
REMARK  239  A    between atoms: _588  and  _590
REMARK  240  A    between atoms: _590  and  _591
REMARK  241  A    between atoms: _594  and  _596
REMARK  242  A    between atoms: _596  and  _597
REMARK  243  A    between atoms: _596  and  _599
REMARK  244  A    between atoms: _599  and  _600
REMARK  245  A    between atoms: _610  and  _612
REMARK  246  A    between atoms: _612  and  _613
REMARK  247  A    between atoms: _616  and  _618
REMARK  248  A    between atoms: _618  and  _619
REMARK  249  A    between atoms: _622  and  _624
REMARK  250  A    between atoms: _624  and  _625
REMARK  251  A    between atoms: _624  and  _627
REMARK  252  A    between atoms: _627  and  _628
REMARK  253  A    between atoms: _628  and  _629
REMARK  254  A    between atoms: _634  and  _636
REMARK  255  A    between atoms: _636  and  _637
REMARK  256  A    between atoms: _636  and  _639
REMARK  257  A    between atoms: _639  and  _640
REMARK  258  A    between atoms: _643  and  _645
REMARK  259  A    between atoms: _645  and  _646
REMARK  260  A    between atoms: _645  and  _648
REMARK  261  A    between atoms: _648  and  _649
REMARK  262  A    between atoms: _652  and  _654
REMARK  263  A    between atoms: _654  and  _655
REMARK  264  A    between atoms: _654  and  _657
REMARK  265  A    between atoms: _657  and  _658
REMARK  266  A    between atoms: _658  and  _659
REMARK  267  A    between atoms: _664  and  _666
REMARK  268  A    between atoms: _666  and  _667
REMARK  269  A    between atoms: _666  and  _669
REMARK  270  A    between atoms: _669  and  _670
REMARK  271  A    between atoms: _670  and  _671
REMARK  272  A    between atoms: _671  and  _672
REMARK  273  A    between atoms: _681  and  _683
REMARK  274  A    between atoms: _683  and  _684
REMARK  275  A    between atoms: _683  and  _686
REMARK  276  A    between atoms: _686  and  _687
REMARK  277  A    between atoms: _687  and  _688
REMARK  278  A    between atoms: _688  and  _689
REMARK  279  A    between atoms: _689  and  _690
REMARK  280  A    between atoms: _694  and  _696
REMARK  281  A    between atoms: _696  and  _697
REMARK  282  A    between atoms: _696  and  _699
REMARK  283  A    between atoms: _699  and  _700
REMARK  284  A    between atoms: _710  and  _712
REMARK  285  A    between atoms: _712  and  _713
REMARK  286  A    between atoms: _712  and  _715
REMARK  287  A    between atoms: _715  and  _716
REMARK  288  A    between atoms: _716  and  _717
REMARK  289  A    between atoms: _720  and  _722
REMARK  290  A    between atoms: _722  and  _723
REMARK  291  A    between atoms: _726  and  _728
REMARK  292  A    between atoms: _728  and  _729
REMARK  293  A    between atoms: _732  and  _734
REMARK  294  A    between atoms: _734  and  _735
REMARK  295  A    between atoms: _734  and  _737
REMARK  296  A    between atoms: _737  and  _738
REMARK  297  A    between atoms: _738  and  _739
REMARK  298  A    between atoms: _739  and  _740
REMARK  299  A    between atoms: _749  and  _751
REMARK  300  A    between atoms: _751  and  _752
REMARK  301  A    between atoms: _751  and  _754
REMARK  302  A    between atoms: _754  and  _755
REMARK  303  A    between atoms: _755  and  _756
REMARK  304  A    between atoms: _759  and  _761
REMARK  305  A    between atoms: _761  and  _762
REMARK  306  A    between atoms: _765  and  _767
REMARK  307  A    between atoms: _767  and  _768
REMARK  308  A    between atoms: _767  and  _770
REMARK  309  A    between atoms: _770  and  _771
REMARK  310  A    between atoms: _771  and  _772
REMARK  311  A    between atoms: _775  and  _777
REMARK  312  A    between atoms: _777  and  _778
REMARK  313  A    between atoms: _777  and  _780
REMARK  314  A    between atoms: _780  and  _781
REMARK  315  A    between atoms: _781  and  _782
REMARK  316  A    between atoms: _787  and  _789
REMARK  317  A    between atoms: _789  and  _790
REMARK  318  A    between atoms: _789  and  _792
REMARK  319  A    between atoms: _792  and  _793
REMARK  320  A    between atoms: _803  and  _805
REMARK  321  A    between atoms: _805  and  _806
REMARK  322  A    between atoms: _805  and  _808
REMARK  323  A    between atoms: _808  and  _809
REMARK  324  A    between atoms: _809  and  _810
REMARK  325  A    between atoms: _810  and  _811
REMARK  326  A    between atoms: _820  and  _822
REMARK  327  A    between atoms: _822  and  _823
REMARK  328  A    between atoms: _826  and  _828
REMARK  329  A    between atoms: _828  and  _829
REMARK  330  A    between atoms: _828  and  _831
REMARK  331  A    between atoms: _831  and  _832
REMARK  332  A    between atoms: _837  and  _838
REMARK  333  A    between atoms: _840  and  _842
REMARK  334  A    between atoms: _842  and  _843
REMARK  335  A    between atoms: _842  and  _845
REMARK  336  A    between atoms: _845  and  _846
REMARK  337  A    between atoms: _849  and  _851
REMARK  338  A    between atoms: _851  and  _852
REMARK  339  A    between atoms: _854  and  _856
REMARK  340  A    between atoms: _856  and  _857
REMARK  341  A    between atoms: _856  and  _859
REMARK  342  A    between atoms: _859  and  _860
REMARK  343  A    between atoms: _863  and  _865
REMARK  344  A    between atoms: _865  and  _866
REMARK  345  A    between atoms: _865  and  _868
REMARK  346  A    between atoms: _868  and  _869
REMARK  347  A    between atoms: _870  and  _872
REMARK  348  A    between atoms: _872  and  _873
REMARK  349  A    between atoms: _872  and  _875
REMARK  350  A    between atoms: _878  and  _880
REMARK  351  A    between atoms: _880  and  _881
REMARK  352  A    between atoms: _880  and  _883
REMARK  353  A    between atoms: _883  and  _884
REMARK  354  A    between atoms: _884  and  _885
REMARK  355  A    between atoms: _888  and  _890
REMARK  356  A    between atoms: _890  and  _891
REMARK  357  A    between atoms: _890  and  _893
REMARK  358  A    between atoms: _893  and  _894
REMARK  359  A    between atoms: _904  and  _906
REMARK  360  A    between atoms: _906  and  _907
REMARK  361  A    between atoms: _906  and  _909
REMARK  362  A    between atoms: _909  and  _910
REMARK  363  A    between atoms: _913  and  _915
REMARK  364  A    between atoms: _915  and  _916
REMARK  365  A    between atoms: _915  and  _918
REMARK  366  A    between atoms: _918  and  _919
REMARK  367  A    between atoms: _919  and  _920
REMARK  368  A    between atoms: _920  and  _921
REMARK  369  A    between atoms: _930  and  _932
REMARK  370  A    between atoms: _932  and  _933
REMARK  371  A    between atoms: _932  and  _935
REMARK  372  A    between atoms: _935  and  _936
REMARK  373  A    between atoms: _941  and  _942
REMARK  374  A    between atoms: _944  and  _946
REMARK  375  A    between atoms: _946  and  _947
REMARK  376  A    between atoms: _946  and  _949
REMARK  377  A    between atoms: _949  and  _950
REMARK                            x       y       z     vdW  Elec       q    Type
REMARK                         _______ _______ _______ _____ _____    ______ ____
ROOT
ATOM      1  O   HOH     1      21.984  20.385  40.231  0.00  0.00    +0.000 OA
ENDROOT
TORSDOF 0
REMARK  Name = ../refined-set-2016/1xr9/1xr9_pocket.pdb
REMARK  377 active torsions:
REMARK  status: ('A' for Active; 'I' for Inactive)
REMARK    1  A    between atoms: _1  and  _3
REMARK    2  A    between atoms: _3  and  _4
REMARK    3  A    between atoms: _3  and  _6
REMARK    4  A    between atoms: _6  and  _7
REMARK    5  A    between atoms: _7  and  _8
REMARK    6  A    between atoms: _10  and  _12
REMARK    7  A    between atoms: _12  and  _13
REMARK    8  A    between atoms: _12  and  _15
REMARK    9  A    between atoms: _15  and  _16
REMARK   10  A    between atoms: _16  and  _17
REMARK   11  A    between atoms: _17  and  _18
REMARK   12  A    between atoms: _27  and  _29
REMARK   13  A    between atoms: _29  and  _30
REMARK   14  A    between atoms: _29  and  _32
REMARK   15  A    between atoms: _32  and  _33
REMARK   16  A    between atoms: _38  and  _39
REMARK   17  A    between atoms: _41  and  _43
REMARK   18  A    between atoms: _43  and  _44
REMARK   19  A    between atoms: _43  and  _46
REMARK   20  A    between atoms: _46  and  _47
REMARK   21  A    between atoms: _53  and  _55
REMARK   22  A    between atoms: _55  and  _56
REMARK   23  A    between atoms: _55  and  _58
REMARK   24  A    between atoms: _58  and  _59
REMARK   25  A    between atoms: _64  and  _65
REMARK   26  A    between atoms: _67  and  _69
REMARK   27  A    between atoms: _69  and  _70
REMARK   28  A    between atoms: _69  and  _72
REMARK   29  A    between atoms: _72  and  _73
REMARK   30  A    between atoms: _79  and  _81
REMARK   31  A    between atoms: _81  and  _82
REMARK   32  A    between atoms: _85  and  _87
REMARK   33  A    between atoms: _87  and  _88
REMARK   34  A    between atoms: _87  and  _90
REMARK   35  A    between atoms: _93  and  _95
REMARK   36  A    between atoms: _95  and  _96
REMARK   37  A    between atoms: _98  and  _100
REMARK   38  A    between atoms: _100  and  _101
REMARK   39  A    between atoms: _100  and  _103
REMARK   40  A    between atoms: _106  and  _108
REMARK   41  A    between atoms: _108  and  _109
REMARK   42  A    between atoms: _108  and  _111
REMARK   43  A    between atoms: _111  and  _112
REMARK   44  A    between atoms: _118  and  _120
REMARK   45  A    between atoms: _120  and  _121
REMARK   46  A    between atoms: _120  and  _123
REMARK   47  A    between atoms: _126  and  _128
REMARK   48  A    between atoms: _128  and  _129
REMARK   49  A    between atoms: _128  and  _131
REMARK   50  A    between atoms: _131  and  _132
REMARK   51  A    between atoms: _138  and  _140
REMARK   52  A    between atoms: _140  and  _141
REMARK   53  A    between atoms: _140  and  _143
REMARK   54  A    between atoms: _143  and  _144
REMARK   55  A    between atoms: _144  and  _145
REMARK   56  A    between atoms: _147  and  _149
REMARK   57  A    between atoms: _149  and  _150
REMARK   58  A    between atoms: _149  and  _152
REMARK   59  A    between atoms: _152  and  _153
REMARK   60  A    between atoms: _156  and  _158
REMARK   61  A    between atoms: _158  and  _159
REMARK   62  A    between atoms: _158  and  _161
REMARK   63  A    between atoms: _161  and  _162
REMARK   64  A    between atoms: _162  and  _163
REMARK   65  A    between atoms: _166  and  _168
REMARK   66  A    between atoms: _168  and  _169
REMARK   67  A    between atoms: _168  and  _171
REMARK   68  A    between atoms: _171  and  _172
REMARK   69  A    between atoms: _172  and  _173
REMARK   70  A    between atoms: _176  and  _178
REMARK   71  A    between atoms: _178  and  _179
REMARK   72  A    between atoms: _178  and  _181
REMARK   73  A    between atoms: _181  and  _182
REMARK   74  A    between atoms: _187  and  _188
REMARK   75  A    between atoms: _190  and  _192
REMARK   76  A    between atoms: _192  and  _193
REMARK   77  A    between atoms: _192  and  _195
REMARK   78  A    between atoms: _195  and  _196
REMARK   79  A    between atoms: _206  and  _208
REMARK   80  A    between atoms: _208  and  _209
REMARK   81  A    between atoms: _208  and  _211
REMARK   82  A    between atoms: _211  and  _212
REMARK   83  A    between atoms: _215  and  _217
REMARK   84  A    between atoms: _217  and  _218
REMARK   85  A    between atoms: _217  and  _220
REMARK   86  A    between atoms: _220  and  _221
REMARK   87  A    between atoms: _221  and  _222
REMARK   88  A    between atoms: _222  and  _223
REMARK   89  A    between atoms: _232  and  _234
REMARK   90  A    between atoms: _234  and  _235
REMARK   91  A    between atoms: _234  and  _237
REMARK   92  A    between atoms: _237  and  _238
REMARK   93  A    between atoms: _238  and  _239
REMARK   94  A    between atoms: _242  and  _244
REMARK   95  A    between atoms: _244  and  _245
REMARK   96  A    between atoms: _244  and  _247
REMARK   97  A    between atoms: _247  and  _248
REMARK   98  A    between atoms: _251  and  _253
REMARK   99  A    between atoms: _253  and  _254
REMARK  100  A    between atoms: _253  and  _256
REMARK  101  A    between atoms: _256  and  _257
REMARK  102  A    between atoms: _257  and  _258
REMARK  103  A    between atoms: _263  and  _265
REMARK  104  A    between atoms: _265  and  _266
REMARK  105  A    between atoms: _265  and  _268
REMARK  106  A    between atoms: _268  and  _269
REMARK  107  A    between atoms: _272  and  _274
REMARK  108  A    between atoms: _274  and  _275
REMARK  109  A    between atoms: _274  and  _277
REMARK  110  A    between atoms: _277  and  _278
REMARK  111  A    between atoms: _280  and  _282
REMARK  112  A    between atoms: _282  and  _283
REMARK  113  A    between atoms: _282  and  _285
REMARK  114  A    between atoms: _285  and  _286
REMARK  115  A    between atoms: _286  and  _287
REMARK  116  A    between atoms: _287  and  _288
REMARK  117  A    between atoms: _288  and  _289
REMARK  118  A    between atoms: _293  and  _295
REMARK  119  A    between atoms: _295  and  _296
REMARK  120  A    between atoms: _295  and  _298
REMARK  121  A    between atoms: _298  and  _299
REMARK  122  A    between atoms: _302  and  _304
REMARK  123  A    between atoms: _304  and  _305
REMARK  124  A    between atoms: _304  and  _307
REMARK  125  A    between atoms: _307  and  _308
REMARK  126  A    between atoms: _313  and  _315
REMARK  127  A    between atoms: _315  and  _316
REMARK  128  A    between atoms: _315  and  _318
REMARK  129  A    between atoms: _318  and  _319
REMARK  130  A    between atoms: _319  and  _320
REMARK  131  A    between atoms: _325  and  _327
REMARK  132  A    between atoms: _327  and  _328
REMARK  133  A    between atoms: _327  and  _330
REMARK  134  A    between atoms: _330  and  _331
REMARK  135  A    between atoms: _334  and  _336
REMARK  136  A    between atoms: _336  and  _337
REMARK  137  A    between atoms: _336  and  _339
REMARK  138  A    between atoms: _339  and  _340
REMARK  139  A    between atoms: _345  and  _346
REMARK  140  A    between atoms: _348  and  _350
REMARK  141  A    between atoms: _350  and  _351
REMARK  142  A    between atoms: _350  and  _353
REMARK  143  A    between atoms: _353  and  _354
REMARK  144  A    between atoms: _354  and  _355
REMARK  145  A    between atoms: _355  and  _356
REMARK  146  A    between atoms: _365  and  _367
REMARK  147  A    between atoms: _367  and  _368
REMARK  148  A    between atoms: _367  and  _370
REMARK  149  A    between atoms: _370  and  _371
REMARK  150  A    between atoms: _371  and  _372
REMARK  151  A    between atoms: _375  and  _377
REMARK  152  A    between atoms: _377  and  _378
REMARK  153  A    between atoms: _377  and  _380
REMARK  154  A    between atoms: _380  and  _381
REMARK  155  A    between atoms: _383  and  _385
REMARK  156  A    between atoms: _385  and  _386
REMARK  157  A    between atoms: _385  and  _388
REMARK  158  A    between atoms: _388  and  _389
REMARK  159  A    between atoms: _392  and  _394
REMARK  160  A    between atoms: _394  and  _395
REMARK  161  A    between atoms: _394  and  _397
REMARK  162  A    between atoms: _397  and  _398
REMARK  163  A    between atoms: _398  and  _399
REMARK  164  A    between atoms: _399  and  _400
REMARK  165  A    between atoms: _409  and  _411
REMARK  166  A    between atoms: _411  and  _412
REMARK  167  A    between atoms: _411  and  _414
REMARK  168  A    between atoms: _414  and  _415
REMARK  169  A    between atoms: _420  and  _422
REMARK  170  A    between atoms: _422  and  _423
REMARK  171  A    between atoms: _422  and  _425
REMARK  172  A    between atoms: _425  and  _426
REMARK  173  A    between atoms: _429  and  _431
REMARK  174  A    between atoms: _431  and  _432
REMARK  175  A    between atoms: _431  and  _434
REMARK  176  A    between atoms: _434  and  _435
REMARK  177  A    between atoms: _440  and  _441
REMARK  178  A    between atoms: _443  and  _445
REMARK  179  A    between atoms: _445  and  _446
REMARK  180  A    between atoms: _445  and  _448
REMARK  181  A    between atoms: _448  and  _449
REMARK  182  A    between atoms: _452  and  _454
REMARK  183  A    between atoms: _454  and  _455
REMARK  184  A    between atoms: _454  and  _457
REMARK  185  A    between atoms: _457  and  _458
REMARK  186  A    between atoms: _458  and  _459
REMARK  187  A    between atoms: _464  and  _466
REMARK  188  A    between atoms: _466  and  _467
REMARK  189  A    between atoms: _466  and  _469
REMARK  190  A    between atoms: _469  and  _470
REMARK  191  A    between atoms: _470  and  _471
REMARK  192  A    between atoms: _471  and  _472
REMARK  193  A    between atoms: _481  and  _483
REMARK  194  A    between atoms: _483  and  _484
REMARK  195  A    between atoms: _483  and  _486
REMARK  196  A    between atoms: _486  and  _487
REMARK  197  A    between atoms: _487  and  _488
REMARK  198  A    between atoms: _490  and  _492
REMARK  199  A    between atoms: _492  and  _493
REMARK  200  A    between atoms: _492  and  _495
REMARK  201  A    between atoms: _495  and  _496
REMARK  202  A    between atoms: _501  and  _502
REMARK  203  A    between atoms: _504  and  _506
REMARK  204  A    between atoms: _506  and  _507
REMARK  205  A    between atoms: _509  and  _511
REMARK  206  A    between atoms: _511  and  _512
REMARK  207  A    between atoms: _511  and  _514
REMARK  208  A    between atoms: _514  and  _515
REMARK  209  A    between atoms: _515  and  _869
REMARK  210  A    between atoms: _516  and  _518
REMARK  211  A    between atoms: _518  and  _519
REMARK  212  A    between atoms: _518  and  _521
REMARK  213  A    between atoms: _521  and  _522
REMARK  214  A    between atoms: _525  and  _527
REMARK  215  A    between atoms: _527  and  _528
REMARK  216  A    between atoms: _527  and  _530
REMARK  217  A    between atoms: _530  and  _531
REMARK  218  A    between atoms: _531  and  _532
REMARK  219  A    between atoms: _537  and  _539
REMARK  220  A    between atoms: _539  and  _540
REMARK  221  A    between atoms: _539  and  _542
REMARK  222  A    between atoms: _542  and  _543
REMARK  223  A    between atoms: _545  and  _547
REMARK  224  A    between atoms: _547  and  _548
REMARK  225  A    between atoms: _551  and  _553
REMARK  226  A    between atoms: _553  and  _554
REMARK  227  A    between atoms: _553  and  _556
REMARK  228  A    between atoms: _556  and  _557
REMARK  229  A    between atoms: _562  and  _563
REMARK  230  A    between atoms: _565  and  _567
REMARK  231  A    between atoms: _567  and  _568
REMARK  232  A    between atoms: _567  and  _570
REMARK  233  A    between atoms: _570  and  _571
REMARK  234  A    between atoms: _576  and  _577
REMARK  235  A    between atoms: _579  and  _581
REMARK  236  A    between atoms: _581  and  _582
REMARK  237  A    between atoms: _581  and  _584
REMARK  238  A    between atoms: _584  and  _585
REMARK  239  A    between atoms: _588  and  _590
REMARK  240  A    between atoms: _590  and  _591
REMARK  241  A    between atoms: _594  and  _596
REMARK  242  A    between atoms: _596  and  _597
REMARK  243  A    between atoms: _596  and  _599
REMARK  244  A    between atoms: _599  and  _600
REMARK  245  A    between atoms: _610  and  _612
REMARK  246  A    between atoms: _612  and  _613
REMARK  247  A    between atoms: _616  and  _618
REMARK  248  A    between atoms: _618  and  _619
REMARK  249  A    between atoms: _622  and  _624
REMARK  250  A    between atoms: _624  and  _625
REMARK  251  A    between atoms: _624  and  _627
REMARK  252  A    between atoms: _627  and  _628
REMARK  253  A    between atoms: _628  and  _629
REMARK  254  A    between atoms: _634  and  _636
REMARK  255  A    between atoms: _636  and  _637
REMARK  256  A    between atoms: _636  and  _639
REMARK  257  A    between atoms: _639  and  _640
REMARK  258  A    between atoms: _643  and  _645
REMARK  259  A    between atoms: _645  and  _646
REMARK  260  A    between atoms: _645  and  _648
REMARK  261  A    between atoms: _648  and  _649
REMARK  262  A    between atoms: _652  and  _654
REMARK  263  A    between atoms: _654  and  _655
REMARK  264  A    between atoms: _654  and  _657
REMARK  265  A    between atoms: _657  and  _658
REMARK  266  A    between atoms: _658  and  _659
REMARK  267  A    between atoms: _664  and  _666
REMARK  268  A    between atoms: _666  and  _667
REMARK  269  A    between atoms: _666  and  _669
REMARK  270  A    between atoms: _669  and  _670
REMARK  271  A    between atoms: _670  and  _671
REMARK  272  A    between atoms: _671  and  _672
REMARK  273  A    between atoms: _681  and  _683
REMARK  274  A    between atoms: _683  and  _684
REMARK  275  A    between atoms: _683  and  _686
REMARK  276  A    between atoms: _686  and  _687
REMARK  277  A    between atoms: _687  and  _688
REMARK  278  A    between atoms: _688  and  _689
REMARK  279  A    between atoms: _689  and  _690
REMARK  280  A    between atoms: _694  and  _696
REMARK  281  A    between atoms: _696  and  _697
REMARK  282  A    between atoms: _696  and  _699
REMARK  283  A    between atoms: _699  and  _700
REMARK  284  A    between atoms: _710  and  _712
REMARK  285  A    between atoms: _712  and  _713
REMARK  286  A    between atoms: _712  and  _715
REMARK  287  A    between atoms: _715  and  _716
REMARK  288  A    between atoms: _716  and  _717
REMARK  289  A    between atoms: _720  and  _722
REMARK  290  A    between atoms: _722  and  _723
REMARK  291  A    between atoms: _726  and  _728
REMARK  292  A    between atoms: _728  and  _729
REMARK  293  A    between atoms: _732  and  _734
REMARK  294  A    between atoms: _734  and  _735
REMARK  295  A    between atoms: _734  and  _737
REMARK  296  A    between atoms: _737  and  _738
REMARK  297  A    between atoms: _738  and  _739
REMARK  298  A    between atoms: _739  and  _740
REMARK  299  A    between atoms: _749  and  _751
REMARK  300  A    between atoms: _751  and  _752
REMARK  301  A    between atoms: _751  and  _754
REMARK  302  A    between atoms: _754  and  _755
REMARK  303  A    between atoms: _755  and  _756
REMARK  304  A    between atoms: _759  and  _761
REMARK  305  A    between atoms: _761  and  _762
REMARK  306  A    between atoms: _765  and  _767
REMARK  307  A    between atoms: _767  and  _768
REMARK  308  A    between atoms: _767  and  _770
REMARK  309  A    between atoms: _770  and  _771
REMARK  310  A    between atoms: _771  and  _772
REMARK  311  A    between atoms: _775  and  _777
REMARK  312  A    between atoms: _777  and  _778
REMARK  313  A    between atoms: _777  and  _780
REMARK  314  A    between atoms: _780  and  _781
REMARK  315  A    between atoms: _781  and  _782
REMARK  316  A    between atoms: _787  and  _789
REMARK  317  A    between atoms: _789  and  _790
REMARK  318  A    between atoms: _789  and  _792
REMARK  319  A    between atoms: _792  and  _793
REMARK  320  A    between atoms: _803  and  _805
REMARK  321  A    between atoms: _805  and  _806
REMARK  322  A    between atoms: _805  and  _808
REMARK  323  A    between atoms: _808  and  _809
REMARK  324  A    between atoms: _809  and  _810
REMARK  325  A    between atoms: _810  and  _811
REMARK  326  A    between atoms: _820  and  _822
REMARK  327  A    between atoms: _822  and  _823
REMARK  328  A    between atoms: _826  and  _828
REMARK  329  A    between atoms: _828  and  _829
REMARK  330  A    between atoms: _828  and  _831
REMARK  331  A    between atoms: _831  and  _832
REMARK  332  A    between atoms: _837  and  _838
REMARK  333  A    between atoms: _840  and  _842
REMARK  334  A    between atoms: _842  and  _843
REMARK  335  A    between atoms: _842  and  _845
REMARK  336  A    between atoms: _845  and  _846
REMARK  337  A    between atoms: _849  and  _851
REMARK  338  A    between atoms: _851  and  _852
REMARK  339  A    between atoms: _854  and  _856
REMARK  340  A    between atoms: _856  and  _857
REMARK  341  A    between atoms: _856  and  _859
REMARK  342  A    between atoms: _859  and  _860
REMARK  343  A    between atoms: _863  and  _865
REMARK  344  A    between atoms: _865  and  _866
REMARK  345  A    between atoms: _865  and  _868
REMARK  346  A    between atoms: _868  and  _869
REMARK  347  A    between atoms: _870  and  _872
REMARK  348  A    between atoms: _872  and  _873
REMARK  349  A    between atoms: _872  and  _875
REMARK  350  A    between atoms: _878  and  _880
REMARK  351  A    between atoms: _880  and  _881
REMARK  352  A    between atoms: _880  and  _883
REMARK  353  A    between atoms: _883  and  _884
REMARK  354  A    between atoms: _884  and  _885
REMARK  355  A    between atoms: _888  and  _890
REMARK  356  A    between atoms: _890  and  _891
REMARK  357  A    between atoms: _890  and  _893
REMARK  358  A    between atoms: _893  and  _894
REMARK  359  A    between atoms: _904  and  _906
REMARK  360  A    between atoms: _906  and  _907
REMARK  361  A    between atoms: _906  and  _909
REMARK  362  A    between atoms: _909  and  _910
REMARK  363  A    between atoms: _913  and  _915
REMARK  364  A    between atoms: _915  and  _916
REMARK  365  A    between atoms: _915  and  _918
REMARK  366  A    between atoms: _918  and  _919
REMARK  367  A    between atoms: _919  and  _920
REMARK  368  A    between atoms: _920  and  _921
REMARK  369  A    between atoms: _930  and  _932
REMARK  370  A    between atoms: _932  and  _933
REMARK  371  A    between atoms: _932  and  _935
REMARK  372  A    between atoms: _935  and  _936
REMARK  373  A    between atoms: _941  and  _942
REMARK  374  A    between atoms: _944  and  _946
REMARK  375  A    between atoms: _946  and  _947
REMARK  376  A    between atoms: _946  and  _949
REMARK  377  A    between atoms: _949  and  _950
REMARK                            x       y       z     vdW  Elec       q    Type
REMARK                         _______ _______ _______ _____ _____    ______ ____
ROOT
ATOM      1  O   HOH     1      41.522  22.939  31.795  0.00  0.00    +0.000 OA
ENDROOT
TORSDOF 0
REMARK  Name = ../refined-set-2016/1xr9/1xr9_pocket.pdb
REMARK  377 active torsions:
REMARK  status: ('A' for Active; 'I' for Inactive)
REMARK    1  A    between atoms: _1  and  _3
REMARK    2  A    between atoms: _3  and  _4
REMARK    3  A    between atoms: _3  and  _6
REMARK    4  A    between atoms: _6  and  _7
REMARK    5  A    between atoms: _7  and  _8
REMARK    6  A    between atoms: _10  and  _12
REMARK    7  A    between atoms: _12  and  _13
REMARK    8  A    between atoms: _12  and  _15
REMARK    9  A    between atoms: _15  and  _16
REMARK   10  A    between atoms: _16  and  _17
REMARK   11  A    between atoms: _17  and  _18
REMARK   12  A    between atoms: _27  and  _29
REMARK   13  A    between atoms: _29  and  _30
REMARK   14  A    between atoms: _29  and  _32
REMARK   15  A    between atoms: _32  and  _33
REMARK   16  A    between atoms: _38  and  _39
REMARK   17  A    between atoms: _41  and  _43
REMARK   18  A    between atoms: _43  and  _44
REMARK   19  A    between atoms: _43  and  _46
REMARK   20  A    between atoms: _46  and  _47
REMARK   21  A    between atoms: _53  and  _55
REMARK   22  A    between atoms: _55  and  _56
REMARK   23  A    between atoms: _55  and  _58
REMARK   24  A    between atoms: _58  and  _59
REMARK   25  A    between atoms: _64  and  _65
REMARK   26  A    between atoms: _67  and  _69
REMARK   27  A    between atoms: _69  and  _70
REMARK   28  A    between atoms: _69  and  _72
REMARK   29  A    between atoms: _72  and  _73
REMARK   30  A    between atoms: _79  and  _81
REMARK   31  A    between atoms: _81  and  _82
REMARK   32  A    between atoms: _85  and  _87
REMARK   33  A    between atoms: _87  and  _88
REMARK   34  A    between atoms: _87  and  _90
REMARK   35  A    between atoms: _93  and  _95
REMARK   36  A    between atoms: _95  and  _96
REMARK   37  A    between atoms: _98  and  _100
REMARK   38  A    between atoms: _100  and  _101
REMARK   39  A    between atoms: _100  and  _103
REMARK   40  A    between atoms: _106  and  _108
REMARK   41  A    between atoms: _108  and  _109
REMARK   42  A    between atoms: _108  and  _111
REMARK   43  A    between atoms: _111  and  _112
REMARK   44  A    between atoms: _118  and  _120
REMARK   45  A    between atoms: _120  and  _121
REMARK   46  A    between atoms: _120  and  _123
REMARK   47  A    between atoms: _126  and  _128
REMARK   48  A    between atoms: _128  and  _129
REMARK   49  A    between atoms: _128  and  _131
REMARK   50  A    between atoms: _131  and  _132
REMARK   51  A    between atoms: _138  and  _140
REMARK   52  A    between atoms: _140  and  _141
REMARK   53  A    between atoms: _140  and  _143
REMARK   54  A    between atoms: _143  and  _144
REMARK   55  A    between atoms: _144  and  _145
REMARK   56  A    between atoms: _147  and  _149
REMARK   57  A    between atoms: _149  and  _150
REMARK   58  A    between atoms: _149  and  _152
REMARK   59  A    between atoms: _152  and  _153
REMARK   60  A    between atoms: _156  and  _158
REMARK   61  A    between atoms: _158  and  _159
REMARK   62  A    between atoms: _158  and  _161
REMARK   63  A    between atoms: _161  and  _162
REMARK   64  A    between atoms: _162  and  _163
REMARK   65  A    between atoms: _166  and  _168
REMARK   66  A    between atoms: _168  and  _169
REMARK   67  A    between atoms: _168  and  _171
REMARK   68  A    between atoms: _171  and  _172
REMARK   69  A    between atoms: _172  and  _173
REMARK   70  A    between atoms: _176  and  _178
REMARK   71  A    between atoms: _178  and  _179
REMARK   72  A    between atoms: _178  and  _181
REMARK   73  A    between atoms: _181  and  _182
REMARK   74  A    between atoms: _187  and  _188
REMARK   75  A    between atoms: _190  and  _192
REMARK   76  A    between atoms: _192  and  _193
REMARK   77  A    between atoms: _192  and  _195
REMARK   78  A    between atoms: _195  and  _196
REMARK   79  A    between atoms: _206  and  _208
REMARK   80  A    between atoms: _208  and  _209
REMARK   81  A    between atoms: _208  and  _211
REMARK   82  A    between atoms: _211  and  _212
REMARK   83  A    between atoms: _215  and  _217
REMARK   84  A    between atoms: _217  and  _218
REMARK   85  A    between atoms: _217  and  _220
REMARK   86  A    between atoms: _220  and  _221
REMARK   87  A    between atoms: _221  and  _222
REMARK   88  A    between atoms: _222  and  _223
REMARK   89  A    between atoms: _232  and  _234
REMARK   90  A    between atoms: _234  and  _235
REMARK   91  A    between atoms: _234  and  _237
REMARK   92  A    between atoms: _237  and  _238
REMARK   93  A    between atoms: _238  and  _239
REMARK   94  A    between atoms: _242  and  _244
REMARK   95  A    between atoms: _244  and  _245
REMARK   96  A    between atoms: _244  and  _247
REMARK   97  A    between atoms: _247  and  _248
REMARK   98  A    between atoms: _251  and  _253
REMARK   99  A    between atoms: _253  and  _254
REMARK  100  A    between atoms: _253  and  _256
REMARK  101  A    between atoms: _256  and  _257
REMARK  102  A    between atoms: _257  and  _258
REMARK  103  A    between atoms: _263  and  _265
REMARK  104  A    between atoms: _265  and  _266
REMARK  105  A    between atoms: _265  and  _268
REMARK  106  A    between atoms: _268  and  _269
REMARK  107  A    between atoms: _272  and  _274
REMARK  108  A    between atoms: _274  and  _275
REMARK  109  A    between atoms: _274  and  _277
REMARK  110  A    between atoms: _277  and  _278
REMARK  111  A    between atoms: _280  and  _282
REMARK  112  A    between atoms: _282  and  _283
REMARK  113  A    between atoms: _282  and  _285
REMARK  114  A    between atoms: _285  and  _286
REMARK  115  A    between atoms: _286  and  _287
REMARK  116  A    between atoms: _287  and  _288
REMARK  117  A    between atoms: _288  and  _289
REMARK  118  A    between atoms: _293  and  _295
REMARK  119  A    between atoms: _295  and  _296
REMARK  120  A    between atoms: _295  and  _298
REMARK  121  A    between atoms: _298  and  _299
REMARK  122  A    between atoms: _302  and  _304
REMARK  123  A    between atoms: _304  and  _305
REMARK  124  A    between atoms: _304  and  _307
REMARK  125  A    between atoms: _307  and  _308
REMARK  126  A    between atoms: _313  and  _315
REMARK  127  A    between atoms: _315  and  _316
REMARK  128  A    between atoms: _315  and  _318
REMARK  129  A    between atoms: _318  and  _319
REMARK  130  A    between atoms: _319  and  _320
REMARK  131  A    between atoms: _325  and  _327
REMARK  132  A    between atoms: _327  and  _328
REMARK  133  A    between atoms: _327  and  _330
REMARK  134  A    between atoms: _330  and  _331
REMARK  135  A    between atoms: _334  and  _336
REMARK  136  A    between atoms: _336  and  _337
REMARK  137  A    between atoms: _336  and  _339
REMARK  138  A    between atoms: _339  and  _340
REMARK  139  A    between atoms: _345  and  _346
REMARK  140  A    between atoms: _348  and  _350
REMARK  141  A    between atoms: _350  and  _351
REMARK  142  A    between atoms: _350  and  _353
REMARK  143  A    between atoms: _353  and  _354
REMARK  144  A    between atoms: _354  and  _355
REMARK  145  A    between atoms: _355  and  _356
REMARK  146  A    between atoms: _365  and  _367
REMARK  147  A    between atoms: _367  and  _368
REMARK  148  A    between atoms: _367  and  _370
REMARK  149  A    between atoms: _370  and  _371
REMARK  150  A    between atoms: _371  and  _372
REMARK  151  A    between atoms: _375  and  _377
REMARK  152  A    between atoms: _377  and  _378
REMARK  153  A    between atoms: _377  and  _380
REMARK  154  A    between atoms: _380  and  _381
REMARK  155  A    between atoms: _383  and  _385
REMARK  156  A    between atoms: _385  and  _386
REMARK  157  A    between atoms: _385  and  _388
REMARK  158  A    between atoms: _388  and  _389
REMARK  159  A    between atoms: _392  and  _394
REMARK  160  A    between atoms: _394  and  _395
REMARK  161  A    between atoms: _394  and  _397
REMARK  162  A    between atoms: _397  and  _398
REMARK  163  A    between atoms: _398  and  _399
REMARK  164  A    between atoms: _399  and  _400
REMARK  165  A    between atoms: _409  and  _411
REMARK  166  A    between atoms: _411  and  _412
REMARK  167  A    between atoms: _411  and  _414
REMARK  168  A    between atoms: _414  and  _415
REMARK  169  A    between atoms: _420  and  _422
REMARK  170  A    between atoms: _422  and  _423
REMARK  171  A    between atoms: _422  and  _425
REMARK  172  A    between atoms: _425  and  _426
REMARK  173  A    between atoms: _429  and  _431
REMARK  174  A    between atoms: _431  and  _432
REMARK  175  A    between atoms: _431  and  _434
REMARK  176  A    between atoms: _434  and  _435
REMARK  177  A    between atoms: _440  and  _441
REMARK  178  A    between atoms: _443  and  _445
REMARK  179  A    between atoms: _445  and  _446
REMARK  180  A    between atoms: _445  and  _448
REMARK  181  A    between atoms: _448  and  _449
REMARK  182  A    between atoms: _452  and  _454
REMARK  183  A    between atoms: _454  and  _455
REMARK  184  A    between atoms: _454  and  _457
REMARK  185  A    between atoms: _457  and  _458
REMARK  186  A    between atoms: _458  and  _459
REMARK  187  A    between atoms: _464  and  _466
REMARK  188  A    between atoms: _466  and  _467
REMARK  189  A    between atoms: _466  and  _469
REMARK  190  A    between atoms: _469  and  _470
REMARK  191  A    between atoms: _470  and  _471
REMARK  192  A    between atoms: _471  and  _472
REMARK  193  A    between atoms: _481  and  _483
REMARK  194  A    between atoms: _483  and  _484
REMARK  195  A    between atoms: _483  and  _486
REMARK  196  A    between atoms: _486  and  _487
REMARK  197  A    between atoms: _487  and  _488
REMARK  198  A    between atoms: _490  and  _492
REMARK  199  A    between atoms: _492  and  _493
REMARK  200  A    between atoms: _492  and  _495
REMARK  201  A    between atoms: _495  and  _496
REMARK  202  A    between atoms: _501  and  _502
REMARK  203  A    between atoms: _504  and  _506
REMARK  204  A    between atoms: _506  and  _507
REMARK  205  A    between atoms: _509  and  _511
REMARK  206  A    between atoms: _511  and  _512
REMARK  207  A    between atoms: _511  and  _514
REMARK  208  A    between atoms: _514  and  _515
REMARK  209  A    between atoms: _515  and  _869
REMARK  210  A    between atoms: _516  and  _518
REMARK  211  A    between atoms: _518  and  _519
REMARK  212  A    between atoms: _518  and  _521
REMARK  213  A    between atoms: _521  and  _522
REMARK  214  A    between atoms: _525  and  _527
REMARK  215  A    between atoms: _527  and  _528
REMARK  216  A    between atoms: _527  and  _530
REMARK  217  A    between atoms: _530  and  _531
REMARK  218  A    between atoms: _531  and  _532
REMARK  219  A    between atoms: _537  and  _539
REMARK  220  A    between atoms: _539  and  _540
REMARK  221  A    between atoms: _539  and  _542
REMARK  222  A    between atoms: _542  and  _543
REMARK  223  A    between atoms: _545  and  _547
REMARK  224  A    between atoms: _547  and  _548
REMARK  225  A    between atoms: _551  and  _553
REMARK  226  A    between atoms: _553  and  _554
REMARK  227  A    between atoms: _553  and  _556
REMARK  228  A    between atoms: _556  and  _557
REMARK  229  A    between atoms: _562  and  _563
REMARK  230  A    between atoms: _565  and  _567
REMARK  231  A    between atoms: _567  and  _568
REMARK  232  A    between atoms: _567  and  _570
REMARK  233  A    between atoms: _570  and  _571
REMARK  234  A    between atoms: _576  and  _577
REMARK  235  A    between atoms: _579  and  _581
REMARK  236  A    between atoms: _581  and  _582
REMARK  237  A    between atoms: _581  and  _584
REMARK  238  A    between atoms: _584  and  _585
REMARK  239  A    between atoms: _588  and  _590
REMARK  240  A    between atoms: _590  and  _591
REMARK  241  A    between atoms: _594  and  _596
REMARK  242  A    between atoms: _596  and  _597
REMARK  243  A    between atoms: _596  and  _599
REMARK  244  A    between atoms: _599  and  _600
REMARK  245  A    between atoms: _610  and  _612
REMARK  246  A    between atoms: _612  and  _613
REMARK  247  A    between atoms: _616  and  _618
REMARK  248  A    between atoms: _618  and  _619
REMARK  249  A    between atoms: _622  and  _624
REMARK  250  A    between atoms: _624  and  _625
REMARK  251  A    between atoms: _624  and  _627
REMARK  252  A    between atoms: _627  and  _628
REMARK  253  A    between atoms: _628  and  _629
REMARK  254  A    between atoms: _634  and  _636
REMARK  255  A    between atoms: _636  and  _637
REMARK  256  A    between atoms: _636  and  _639
REMARK  257  A    between atoms: _639  and  _640
REMARK  258  A    between atoms: _643  and  _645
REMARK  259  A    between atoms: _645  and  _646
REMARK  260  A    between atoms: _645  and  _648
REMARK  261  A    between atoms: _648  and  _649
REMARK  262  A    between atoms: _652  and  _654
REMARK  263  A    between atoms: _654  and  _655
REMARK  264  A    between atoms: _654  and  _657
REMARK  265  A    between atoms: _657  and  _658
REMARK  266  A    between atoms: _658  and  _659
REMARK  267  A    between atoms: _664  and  _666
REMARK  268  A    between atoms: _666  and  _667
REMARK  269  A    between atoms: _666  and  _669
REMARK  270  A    between atoms: _669  and  _670
REMARK  271  A    between atoms: _670  and  _671
REMARK  272  A    between atoms: _671  and  _672
REMARK  273  A    between atoms: _681  and  _683
REMARK  274  A    between atoms: _683  and  _684
REMARK  275  A    between atoms: _683  and  _686
REMARK  276  A    between atoms: _686  and  _687
REMARK  277  A    between atoms: _687  and  _688
REMARK  278  A    between atoms: _688  and  _689
REMARK  279  A    between atoms: _689  and  _690
REMARK  280  A    between atoms: _694  and  _696
REMARK  281  A    between atoms: _696  and  _697
REMARK  282  A    between atoms: _696  and  _699
REMARK  283  A    between atoms: _699  and  _700
REMARK  284  A    between atoms: _710  and  _712
REMARK  285  A    between atoms: _712  and  _713
REMARK  286  A    between atoms: _712  and  _715
REMARK  287  A    between atoms: _715  and  _716
REMARK  288  A    between atoms: _716  and  _717
REMARK  289  A    between atoms: _720  and  _722
REMARK  290  A    between atoms: _722  and  _723
REMARK  291  A    between atoms: _726  and  _728
REMARK  292  A    between atoms: _728  and  _729
REMARK  293  A    between atoms: _732  and  _734
REMARK  294  A    between atoms: _734  and  _735
REMARK  295  A    between atoms: _734  and  _737
REMARK  296  A    between atoms: _737  and  _738
REMARK  297  A    between atoms: _738  and  _739
REMARK  298  A    between atoms: _739  and  _740
REMARK  299  A    between atoms: _749  and  _751
REMARK  300  A    between atoms: _751  and  _752
REMARK  301  A    between atoms: _751  and  _754
REMARK  302  A    between atoms: _754  and  _755
REMARK  303  A    between atoms: _755  and  _756
REMARK  304  A    between atoms: _759  and  _761
REMARK  305  A    between atoms: _761  and  _762
REMARK  306  A    between atoms: _765  and  _767
REMARK  307  A    between atoms: _767  and  _768
REMARK  308  A    between atoms: _767  and  _770
REMARK  309  A    between atoms: _770  and  _771
REMARK  310  A    between atoms: _771  and  _772
REMARK  311  A    between atoms: _775  and  _777
REMARK  312  A    between atoms: _777  and  _778
REMARK  313  A    between atoms: _777  and  _780
REMARK  314  A    between atoms: _780  and  _781
REMARK  315  A    between atoms: _781  and  _782
REMARK  316  A    between atoms: _787  and  _789
REMARK  317  A    between atoms: _789  and  _790
REMARK  318  A    between atoms: _789  and  _792
REMARK  319  A    between atoms: _792  and  _793
REMARK  320  A    between atoms: _803  and  _805
REMARK  321  A    between atoms: _805  and  _806
REMARK  322  A    between atoms: _805  and  _808
REMARK  323  A    between atoms: _808  and  _809
REMARK  324  A    between atoms: _809  and  _810
REMARK  325  A    between atoms: _810  and  _811
REMARK  326  A    between atoms: _820  and  _822
REMARK  327  A    between atoms: _822  and  _823
REMARK  328  A    between atoms: _826  and  _828
REMARK  329  A    between atoms: _828  and  _829
REMARK  330  A    between atoms: _828  and  _831
REMARK  331  A    between atoms: _831  and  _832
REMARK  332  A    between atoms: _837  and  _838
REMARK  333  A    between atoms: _840  and  _842
REMARK  334  A    between atoms: _842  and  _843
REMARK  335  A    between atoms: _842  and  _845
REMARK  336  A    between atoms: _845  and  _846
REMARK  337  A    between atoms: _849  and  _851
REMARK  338  A    between atoms: _851  and  _852
REMARK  339  A    between atoms: _854  and  _856
REMARK  340  A    between atoms: _856  and  _857
REMARK  341  A    between atoms: _856  and  _859
REMARK  342  A    between atoms: _859  and  _860
REMARK  343  A    between atoms: _863  and  _865
REMARK  344  A    between atoms: _865  and  _866
REMARK  345  A    between atoms: _865  and  _868
REMARK  346  A    between atoms: _868  and  _869
REMARK  347  A    between atoms: _870  and  _872
REMARK  348  A    between atoms: _872  and  _873
REMARK  349  A    between atoms: _872  and  _875
REMARK  350  A    between atoms: _878  and  _880
REMARK  351  A    between atoms: _880  and  _881
REMARK  352  A    between atoms: _880  and  _883
REMARK  353  A    between atoms: _883  and  _884
REMARK  354  A    between atoms: _884  and  _885
REMARK  355  A    between atoms: _888  and  _890
REMARK  356  A    between atoms: _890  and  _891
REMARK  357  A    between atoms: _890  and  _893
REMARK  358  A    between atoms: _893  and  _894
REMARK  359  A    between atoms: _904  and  _906
REMARK  360  A    between atoms: _906  and  _907
REMARK  361  A    between atoms: _906  and  _909
REMARK  362  A    between atoms: _909  and  _910
REMARK  363  A    between atoms: _913  and  _915
REMARK  364  A    between atoms: _915  and  _916
REMARK  365  A    between atoms: _915  and  _918
REMARK  366  A    between atoms: _918  and  _919
REMARK  367  A    between atoms: _919  and  _920
REMARK  368  A    between atoms: _920  and  _921
REMARK  369  A    between atoms: _930  and  _932
REMARK  370  A    between atoms: _932  and  _933
REMARK  371  A    between atoms: _932  and  _935
REMARK  372  A    between atoms: _935  and  _936
REMARK  373  A    between atoms: _941  and  _942
REMARK  374  A    between atoms: _944  and  _946
REMARK  375  A    between atoms: _946  and  _947
REMARK  376  A    between atoms: _946  and  _949
REMARK  377  A    between atoms: _949  and  _950
REMARK                            x       y       z     vdW  Elec       q    Type
REMARK                         _______ _______ _______ _____ _____    ______ ____
ROOT
ATOM      1  O   HOH     1      39.160  29.018  35.146  0.00  0.00    +0.000 OA
ENDROOT
TORSDOF 0
REMARK  Name = ../refined-set-2016/1xr9/1xr9_pocket.pdb
REMARK  377 active torsions:
REMARK  status: ('A' for Active; 'I' for Inactive)
REMARK    1  A    between atoms: _1  and  _3
REMARK    2  A    between atoms: _3  and  _4
REMARK    3  A    between atoms: _3  and  _6
REMARK    4  A    between atoms: _6  and  _7
REMARK    5  A    between atoms: _7  and  _8
REMARK    6  A    between atoms: _10  and  _12
REMARK    7  A    between atoms: _12  and  _13
REMARK    8  A    between atoms: _12  and  _15
REMARK    9  A    between atoms: _15  and  _16
REMARK   10  A    between atoms: _16  and  _17
REMARK   11  A    between atoms: _17  and  _18
REMARK   12  A    between atoms: _27  and  _29
REMARK   13  A    between atoms: _29  and  _30
REMARK   14  A    between atoms: _29  and  _32
REMARK   15  A    between atoms: _32  and  _33
REMARK   16  A    between atoms: _38  and  _39
REMARK   17  A    between atoms: _41  and  _43
REMARK   18  A    between atoms: _43  and  _44
REMARK   19  A    between atoms: _43  and  _46
REMARK   20  A    between atoms: _46  and  _47
REMARK   21  A    between atoms: _53  and  _55
REMARK   22  A    between atoms: _55  and  _56
REMARK   23  A    between atoms: _55  and  _58
REMARK   24  A    between atoms: _58  and  _59
REMARK   25  A    between atoms: _64  and  _65
REMARK   26  A    between atoms: _67  and  _69
REMARK   27  A    between atoms: _69  and  _70
REMARK   28  A    between atoms: _69  and  _72
REMARK   29  A    between atoms: _72  and  _73
REMARK   30  A    between atoms: _79  and  _81
REMARK   31  A    between atoms: _81  and  _82
REMARK   32  A    between atoms: _85  and  _87
REMARK   33  A    between atoms: _87  and  _88
REMARK   34  A    between atoms: _87  and  _90
REMARK   35  A    between atoms: _93  and  _95
REMARK   36  A    between atoms: _95  and  _96
REMARK   37  A    between atoms: _98  and  _100
REMARK   38  A    between atoms: _100  and  _101
REMARK   39  A    between atoms: _100  and  _103
REMARK   40  A    between atoms: _106  and  _108
REMARK   41  A    between atoms: _108  and  _109
REMARK   42  A    between atoms: _108  and  _111
REMARK   43  A    between atoms: _111  and  _112
REMARK   44  A    between atoms: _118  and  _120
REMARK   45  A    between atoms: _120  and  _121
REMARK   46  A    between atoms: _120  and  _123
REMARK   47  A    between atoms: _126  and  _128
REMARK   48  A    between atoms: _128  and  _129
REMARK   49  A    between atoms: _128  and  _131
REMARK   50  A    between atoms: _131  and  _132
REMARK   51  A    between atoms: _138  and  _140
REMARK   52  A    between atoms: _140  and  _141
REMARK   53  A    between atoms: _140  and  _143
REMARK   54  A    between atoms: _143  and  _144
REMARK   55  A    between atoms: _144  and  _145
REMARK   56  A    between atoms: _147  and  _149
REMARK   57  A    between atoms: _149  and  _150
REMARK   58  A    between atoms: _149  and  _152
REMARK   59  A    between atoms: _152  and  _153
REMARK   60  A    between atoms: _156  and  _158
REMARK   61  A    between atoms: _158  and  _159
REMARK   62  A    between atoms: _158  and  _161
REMARK   63  A    between atoms: _161  and  _162
REMARK   64  A    between atoms: _162  and  _163
REMARK   65  A    between atoms: _166  and  _168
REMARK   66  A    between atoms: _168  and  _169
REMARK   67  A    between atoms: _168  and  _171
REMARK   68  A    between atoms: _171  and  _172
REMARK   69  A    between atoms: _172  and  _173
REMARK   70  A    between atoms: _176  and  _178
REMARK   71  A    between atoms: _178  and  _179
REMARK   72  A    between atoms: _178  and  _181
REMARK   73  A    between atoms: _181  and  _182
REMARK   74  A    between atoms: _187  and  _188
REMARK   75  A    between atoms: _190  and  _192
REMARK   76  A    between atoms: _192  and  _193
REMARK   77  A    between atoms: _192  and  _195
REMARK   78  A    between atoms: _195  and  _196
REMARK   79  A    between atoms: _206  and  _208
REMARK   80  A    between atoms: _208  and  _209
REMARK   81  A    between atoms: _208  and  _211
REMARK   82  A    between atoms: _211  and  _212
REMARK   83  A    between atoms: _215  and  _217
REMARK   84  A    between atoms: _217  and  _218
REMARK   85  A    between atoms: _217  and  _220
REMARK   86  A    between atoms: _220  and  _221
REMARK   87  A    between atoms: _221  and  _222
REMARK   88  A    between atoms: _222  and  _223
REMARK   89  A    between atoms: _232  and  _234
REMARK   90  A    between atoms: _234  and  _235
REMARK   91  A    between atoms: _234  and  _237
REMARK   92  A    between atoms: _237  and  _238
REMARK   93  A    between atoms: _238  and  _239
REMARK   94  A    between atoms: _242  and  _244
REMARK   95  A    between atoms: _244  and  _245
REMARK   96  A    between atoms: _244  and  _247
REMARK   97  A    between atoms: _247  and  _248
REMARK   98  A    between atoms: _251  and  _253
REMARK   99  A    between atoms: _253  and  _254
REMARK  100  A    between atoms: _253  and  _256
REMARK  101  A    between atoms: _256  and  _257
REMARK  102  A    between atoms: _257  and  _258
REMARK  103  A    between atoms: _263  and  _265
REMARK  104  A    between atoms: _265  and  _266
REMARK  105  A    between atoms: _265  and  _268
REMARK  106  A    between atoms: _268  and  _269
REMARK  107  A    between atoms: _272  and  _274
REMARK  108  A    between atoms: _274  and  _275
REMARK  109  A    between atoms: _274  and  _277
REMARK  110  A    between atoms: _277  and  _278
REMARK  111  A    between atoms: _280  and  _282
REMARK  112  A    between atoms: _282  and  _283
REMARK  113  A    between atoms: _282  and  _285
REMARK  114  A    between atoms: _285  and  _286
REMARK  115  A    between atoms: _286  and  _287
REMARK  116  A    between atoms: _287  and  _288
REMARK  117  A    between atoms: _288  and  _289
REMARK  118  A    between atoms: _293  and  _295
REMARK  119  A    between atoms: _295  and  _296
REMARK  120  A    between atoms: _295  and  _298
REMARK  121  A    between atoms: _298  and  _299
REMARK  122  A    between atoms: _302  and  _304
REMARK  123  A    between atoms: _304  and  _305
REMARK  124  A    between atoms: _304  and  _307
REMARK  125  A    between atoms: _307  and  _308
REMARK  126  A    between atoms: _313  and  _315
REMARK  127  A    between atoms: _315  and  _316
REMARK  128  A    between atoms: _315  and  _318
REMARK  129  A    between atoms: _318  and  _319
REMARK  130  A    between atoms: _319  and  _320
REMARK  131  A    between atoms: _325  and  _327
REMARK  132  A    between atoms: _327  and  _328
REMARK  133  A    between atoms: _327  and  _330
REMARK  134  A    between atoms: _330  and  _331
REMARK  135  A    between atoms: _334  and  _336
REMARK  136  A    between atoms: _336  and  _337
REMARK  137  A    between atoms: _336  and  _339
REMARK  138  A    between atoms: _339  and  _340
REMARK  139  A    between atoms: _345  and  _346
REMARK  140  A    between atoms: _348  and  _350
REMARK  141  A    between atoms: _350  and  _351
REMARK  142  A    between atoms: _350  and  _353
REMARK  143  A    between atoms: _353  and  _354
REMARK  144  A    between atoms: _354  and  _355
REMARK  145  A    between atoms: _355  and  _356
REMARK  146  A    between atoms: _365  and  _367
REMARK  147  A    between atoms: _367  and  _368
REMARK  148  A    between atoms: _367  and  _370
REMARK  149  A    between atoms: _370  and  _371
REMARK  150  A    between atoms: _371  and  _372
REMARK  151  A    between atoms: _375  and  _377
REMARK  152  A    between atoms: _377  and  _378
REMARK  153  A    between atoms: _377  and  _380
REMARK  154  A    between atoms: _380  and  _381
REMARK  155  A    between atoms: _383  and  _385
REMARK  156  A    between atoms: _385  and  _386
REMARK  157  A    between atoms: _385  and  _388
REMARK  158  A    between atoms: _388  and  _389
REMARK  159  A    between atoms: _392  and  _394
REMARK  160  A    between atoms: _394  and  _395
REMARK  161  A    between atoms: _394  and  _397
REMARK  162  A    between atoms: _397  and  _398
REMARK  163  A    between atoms: _398  and  _399
REMARK  164  A    between atoms: _399  and  _400
REMARK  165  A    between atoms: _409  and  _411
REMARK  166  A    between atoms: _411  and  _412
REMARK  167  A    between atoms: _411  and  _414
REMARK  168  A    between atoms: _414  and  _415
REMARK  169  A    between atoms: _420  and  _422
REMARK  170  A    between atoms: _422  and  _423
REMARK  171  A    between atoms: _422  and  _425
REMARK  172  A    between atoms: _425  and  _426
REMARK  173  A    between atoms: _429  and  _431
REMARK  174  A    between atoms: _431  and  _432
REMARK  175  A    between atoms: _431  and  _434
REMARK  176  A    between atoms: _434  and  _435
REMARK  177  A    between atoms: _440  and  _441
REMARK  178  A    between atoms: _443  and  _445
REMARK  179  A    between atoms: _445  and  _446
REMARK  180  A    between atoms: _445  and  _448
REMARK  181  A    between atoms: _448  and  _449
REMARK  182  A    between atoms: _452  and  _454
REMARK  183  A    between atoms: _454  and  _455
REMARK  184  A    between atoms: _454  and  _457
REMARK  185  A    between atoms: _457  and  _458
REMARK  186  A    between atoms: _458  and  _459
REMARK  187  A    between atoms: _464  and  _466
REMARK  188  A    between atoms: _466  and  _467
REMARK  189  A    between atoms: _466  and  _469
REMARK  190  A    between atoms: _469  and  _470
REMARK  191  A    between atoms: _470  and  _471
REMARK  192  A    between atoms: _471  and  _472
REMARK  193  A    between atoms: _481  and  _483
REMARK  194  A    between atoms: _483  and  _484
REMARK  195  A    between atoms: _483  and  _486
REMARK  196  A    between atoms: _486  and  _487
REMARK  197  A    between atoms: _487  and  _488
REMARK  198  A    between atoms: _490  and  _492
REMARK  199  A    between atoms: _492  and  _493
REMARK  200  A    between atoms: _492  and  _495
REMARK  201  A    between atoms: _495  and  _496
REMARK  202  A    between atoms: _501  and  _502
REMARK  203  A    between atoms: _504  and  _506
REMARK  204  A    between atoms: _506  and  _507
REMARK  205  A    between atoms: _509  and  _511
REMARK  206  A    between atoms: _511  and  _512
REMARK  207  A    between atoms: _511  and  _514
REMARK  208  A    between atoms: _514  and  _515
REMARK  209  A    between atoms: _515  and  _869
REMARK  210  A    between atoms: _516  and  _518
REMARK  211  A    between atoms: _518  and  _519
REMARK  212  A    between atoms: _518  and  _521
REMARK  213  A    between atoms: _521  and  _522
REMARK  214  A    between atoms: _525  and  _527
REMARK  215  A    between atoms: _527  and  _528
REMARK  216  A    between atoms: _527  and  _530
REMARK  217  A    between atoms: _530  and  _531
REMARK  218  A    between atoms: _531  and  _532
REMARK  219  A    between atoms: _537  and  _539
REMARK  220  A    between atoms: _539  and  _540
REMARK  221  A    between atoms: _539  and  _542
REMARK  222  A    between atoms: _542  and  _543
REMARK  223  A    between atoms: _545  and  _547
REMARK  224  A    between atoms: _547  and  _548
REMARK  225  A    between atoms: _551  and  _553
REMARK  226  A    between atoms: _553  and  _554
REMARK  227  A    between atoms: _553  and  _556
REMARK  228  A    between atoms: _556  and  _557
REMARK  229  A    between atoms: _562  and  _563
REMARK  230  A    between atoms: _565  and  _567
REMARK  231  A    between atoms: _567  and  _568
REMARK  232  A    between atoms: _567  and  _570
REMARK  233  A    between atoms: _570  and  _571
REMARK  234  A    between atoms: _576  and  _577
REMARK  235  A    between atoms: _579  and  _581
REMARK  236  A    between atoms: _581  and  _582
REMARK  237  A    between atoms: _581  and  _584
REMARK  238  A    between atoms: _584  and  _585
REMARK  239  A    between atoms: _588  and  _590
REMARK  240  A    between atoms: _590  and  _591
REMARK  241  A    between atoms: _594  and  _596
REMARK  242  A    between atoms: _596  and  _597
REMARK  243  A    between atoms: _596  and  _599
REMARK  244  A    between atoms: _599  and  _600
REMARK  245  A    between atoms: _610  and  _612
REMARK  246  A    between atoms: _612  and  _613
REMARK  247  A    between atoms: _616  and  _618
REMARK  248  A    between atoms: _618  and  _619
REMARK  249  A    between atoms: _622  and  _624
REMARK  250  A    between atoms: _624  and  _625
REMARK  251  A    between atoms: _624  and  _627
REMARK  252  A    between atoms: _627  and  _628
REMARK  253  A    between atoms: _628  and  _629
REMARK  254  A    between atoms: _634  and  _636
REMARK  255  A    between atoms: _636  and  _637
REMARK  256  A    between atoms: _636  and  _639
REMARK  257  A    between atoms: _639  and  _640
REMARK  258  A    between atoms: _643  and  _645
REMARK  259  A    between atoms: _645  and  _646
REMARK  260  A    between atoms: _645  and  _648
REMARK  261  A    between atoms: _648  and  _649
REMARK  262  A    between atoms: _652  and  _654
REMARK  263  A    between atoms: _654  and  _655
REMARK  264  A    between atoms: _654  and  _657
REMARK  265  A    between atoms: _657  and  _658
REMARK  266  A    between atoms: _658  and  _659
REMARK  267  A    between atoms: _664  and  _666
REMARK  268  A    between atoms: _666  and  _667
REMARK  269  A    between atoms: _666  and  _669
REMARK  270  A    between atoms: _669  and  _670
REMARK  271  A    between atoms: _670  and  _671
REMARK  272  A    between atoms: _671  and  _672
REMARK  273  A    between atoms: _681  and  _683
REMARK  274  A    between atoms: _683  and  _684
REMARK  275  A    between atoms: _683  and  _686
REMARK  276  A    between atoms: _686  and  _687
REMARK  277  A    between atoms: _687  and  _688
REMARK  278  A    between atoms: _688  and  _689
REMARK  279  A    between atoms: _689  and  _690
REMARK  280  A    between atoms: _694  and  _696
REMARK  281  A    between atoms: _696  and  _697
REMARK  282  A    between atoms: _696  and  _699
REMARK  283  A    between atoms: _699  and  _700
REMARK  284  A    between atoms: _710  and  _712
REMARK  285  A    between atoms: _712  and  _713
REMARK  286  A    between atoms: _712  and  _715
REMARK  287  A    between atoms: _715  and  _716
REMARK  288  A    between atoms: _716  and  _717
REMARK  289  A    between atoms: _720  and  _722
REMARK  290  A    between atoms: _722  and  _723
REMARK  291  A    between atoms: _726  and  _728
REMARK  292  A    between atoms: _728  and  _729
REMARK  293  A    between atoms: _732  and  _734
REMARK  294  A    between atoms: _734  and  _735
REMARK  295  A    between atoms: _734  and  _737
REMARK  296  A    between atoms: _737  and  _738
REMARK  297  A    between atoms: _738  and  _739
REMARK  298  A    between atoms: _739  and  _740
REMARK  299  A    between atoms: _749  and  _751
REMARK  300  A    between atoms: _751  and  _752
REMARK  301  A    between atoms: _751  and  _754
REMARK  302  A    between atoms: _754  and  _755
REMARK  303  A    between atoms: _755  and  _756
REMARK  304  A    between atoms: _759  and  _761
REMARK  305  A    between atoms: _761  and  _762
REMARK  306  A    between atoms: _765  and  _767
REMARK  307  A    between atoms: _767  and  _768
REMARK  308  A    between atoms: _767  and  _770
REMARK  309  A    between atoms: _770  and  _771
REMARK  310  A    between atoms: _771  and  _772
REMARK  311  A    between atoms: _775  and  _777
REMARK  312  A    between atoms: _777  and  _778
REMARK  313  A    between atoms: _777  and  _780
REMARK  314  A    between atoms: _780  and  _781
REMARK  315  A    between atoms: _781  and  _782
REMARK  316  A    between atoms: _787  and  _789
REMARK  317  A    between atoms: _789  and  _790
REMARK  318  A    between atoms: _789  and  _792
REMARK  319  A    between atoms: _792  and  _793
REMARK  320  A    between atoms: _803  and  _805
REMARK  321  A    between atoms: _805  and  _806
REMARK  322  A    between atoms: _805  and  _808
REMARK  323  A    between atoms: _808  and  _809
REMARK  324  A    between atoms: _809  and  _810
REMARK  325  A    between atoms: _810  and  _811
REMARK  326  A    between atoms: _820  and  _822
REMARK  327  A    between atoms: _822  and  _823
REMARK  328  A    between atoms: _826  and  _828
REMARK  329  A    between atoms: _828  and  _829
REMARK  330  A    between atoms: _828  and  _831
REMARK  331  A    between atoms: _831  and  _832
REMARK  332  A    between atoms: _837  and  _838
REMARK  333  A    between atoms: _840  and  _842
REMARK  334  A    between atoms: _842  and  _843
REMARK  335  A    between atoms: _842  and  _845
REMARK  336  A    between atoms: _845  and  _846
REMARK  337  A    between atoms: _849  and  _851
REMARK  338  A    between atoms: _851  and  _852
REMARK  339  A    between atoms: _854  and  _856
REMARK  340  A    between atoms: _856  and  _857
REMARK  341  A    between atoms: _856  and  _859
REMARK  342  A    between atoms: _859  and  _860
REMARK  343  A    between atoms: _863  and  _865
REMARK  344  A    between atoms: _865  and  _866
REMARK  345  A    between atoms: _865  and  _868
REMARK  346  A    between atoms: _868  and  _869
REMARK  347  A    between atoms: _870  and  _872
REMARK  348  A    between atoms: _872  and  _873
REMARK  349  A    between atoms: _872  and  _875
REMARK  350  A    between atoms: _878  and  _880
REMARK  351  A    between atoms: _880  and  _881
REMARK  352  A    between atoms: _880  and  _883
REMARK  353  A    between atoms: _883  and  _884
REMARK  354  A    between atoms: _884  and  _885
REMARK  355  A    between atoms: _888  and  _890
REMARK  356  A    between atoms: _890  and  _891
REMARK  357  A    between atoms: _890  and  _893
REMARK  358  A    between atoms: _893  and  _894
REMARK  359  A    between atoms: _904  and  _906
REMARK  360  A    between atoms: _906  and  _907
REMARK  361  A    between atoms: _906  and  _909
REMARK  362  A    between atoms: _909  and  _910
REMARK  363  A    between atoms: _913  and  _915
REMARK  364  A    between atoms: _915  and  _916
REMARK  365  A    between atoms: _915  and  _918
REMARK  366  A    between atoms: _918  and  _919
REMARK  367  A    between atoms: _919  and  _920
REMARK  368  A    between atoms: _920  and  _921
REMARK  369  A    between atoms: _930  and  _932
REMARK  370  A    between atoms: _932  and  _933
REMARK  371  A    between atoms: _932  and  _935
REMARK  372  A    between atoms: _935  and  _936
REMARK  373  A    between atoms: _941  and  _942
REMARK  374  A    between atoms: _944  and  _946
REMARK  375  A    between atoms: _946  and  _947
REMARK  376  A    between atoms: _946  and  _949
REMARK  377  A    between atoms: _949  and  _950
REMARK                            x       y       z     vdW  Elec       q    Type
REMARK                         _______ _______ _______ _____ _____    ______ ____
ROOT
ATOM      1  O   HOH     1      24.075  32.194  42.688  0.00  0.00    +0.000 OA
ENDROOT
TORSDOF 0
REMARK  Name = ../refined-set-2016/1xr9/1xr9_pocket.pdb
REMARK  377 active torsions:
REMARK  status: ('A' for Active; 'I' for Inactive)
REMARK    1  A    between atoms: _1  and  _3
REMARK    2  A    between atoms: _3  and  _4
REMARK    3  A    between atoms: _3  and  _6
REMARK    4  A    between atoms: _6  and  _7
REMARK    5  A    between atoms: _7  and  _8
REMARK    6  A    between atoms: _10  and  _12
REMARK    7  A    between atoms: _12  and  _13
REMARK    8  A    between atoms: _12  and  _15
REMARK    9  A    between atoms: _15  and  _16
REMARK   10  A    between atoms: _16  and  _17
REMARK   11  A    between atoms: _17  and  _18
REMARK   12  A    between atoms: _27  and  _29
REMARK   13  A    between atoms: _29  and  _30
REMARK   14  A    between atoms: _29  and  _32
REMARK   15  A    between atoms: _32  and  _33
REMARK   16  A    between atoms: _38  and  _39
REMARK   17  A    between atoms: _41  and  _43
REMARK   18  A    between atoms: _43  and  _44
REMARK   19  A    between atoms: _43  and  _46
REMARK   20  A    between atoms: _46  and  _47
REMARK   21  A    between atoms: _53  and  _55
REMARK   22  A    between atoms: _55  and  _56
REMARK   23  A    between atoms: _55  and  _58
REMARK   24  A    between atoms: _58  and  _59
REMARK   25  A    between atoms: _64  and  _65
REMARK   26  A    between atoms: _67  and  _69
REMARK   27  A    between atoms: _69  and  _70
REMARK   28  A    between atoms: _69  and  _72
REMARK   29  A    between atoms: _72  and  _73
REMARK   30  A    between atoms: _79  and  _81
REMARK   31  A    between atoms: _81  and  _82
REMARK   32  A    between atoms: _85  and  _87
REMARK   33  A    between atoms: _87  and  _88
REMARK   34  A    between atoms: _87  and  _90
REMARK   35  A    between atoms: _93  and  _95
REMARK   36  A    between atoms: _95  and  _96
REMARK   37  A    between atoms: _98  and  _100
REMARK   38  A    between atoms: _100  and  _101
REMARK   39  A    between atoms: _100  and  _103
REMARK   40  A    between atoms: _106  and  _108
REMARK   41  A    between atoms: _108  and  _109
REMARK   42  A    between atoms: _108  and  _111
REMARK   43  A    between atoms: _111  and  _112
REMARK   44  A    between atoms: _118  and  _120
REMARK   45  A    between atoms: _120  and  _121
REMARK   46  A    between atoms: _120  and  _123
REMARK   47  A    between atoms: _126  and  _128
REMARK   48  A    between atoms: _128  and  _129
REMARK   49  A    between atoms: _128  and  _131
REMARK   50  A    between atoms: _131  and  _132
REMARK   51  A    between atoms: _138  and  _140
REMARK   52  A    between atoms: _140  and  _141
REMARK   53  A    between atoms: _140  and  _143
REMARK   54  A    between atoms: _143  and  _144
REMARK   55  A    between atoms: _144  and  _145
REMARK   56  A    between atoms: _147  and  _149
REMARK   57  A    between atoms: _149  and  _150
REMARK   58  A    between atoms: _149  and  _152
REMARK   59  A    between atoms: _152  and  _153
REMARK   60  A    between atoms: _156  and  _158
REMARK   61  A    between atoms: _158  and  _159
REMARK   62  A    between atoms: _158  and  _161
REMARK   63  A    between atoms: _161  and  _162
REMARK   64  A    between atoms: _162  and  _163
REMARK   65  A    between atoms: _166  and  _168
REMARK   66  A    between atoms: _168  and  _169
REMARK   67  A    between atoms: _168  and  _171
REMARK   68  A    between atoms: _171  and  _172
REMARK   69  A    between atoms: _172  and  _173
REMARK   70  A    between atoms: _176  and  _178
REMARK   71  A    between atoms: _178  and  _179
REMARK   72  A    between atoms: _178  and  _181
REMARK   73  A    between atoms: _181  and  _182
REMARK   74  A    between atoms: _187  and  _188
REMARK   75  A    between atoms: _190  and  _192
REMARK   76  A    between atoms: _192  and  _193
REMARK   77  A    between atoms: _192  and  _195
REMARK   78  A    between atoms: _195  and  _196
REMARK   79  A    between atoms: _206  and  _208
REMARK   80  A    between atoms: _208  and  _209
REMARK   81  A    between atoms: _208  and  _211
REMARK   82  A    between atoms: _211  and  _212
REMARK   83  A    between atoms: _215  and  _217
REMARK   84  A    between atoms: _217  and  _218
REMARK   85  A    between atoms: _217  and  _220
REMARK   86  A    between atoms: _220  and  _221
REMARK   87  A    between atoms: _221  and  _222
REMARK   88  A    between atoms: _222  and  _223
REMARK   89  A    between atoms: _232  and  _234
REMARK   90  A    between atoms: _234  and  _235
REMARK   91  A    between atoms: _234  and  _237
REMARK   92  A    between atoms: _237  and  _238
REMARK   93  A    between atoms: _238  and  _239
REMARK   94  A    between atoms: _242  and  _244
REMARK   95  A    between atoms: _244  and  _245
REMARK   96  A    between atoms: _244  and  _247
REMARK   97  A    between atoms: _247  and  _248
REMARK   98  A    between atoms: _251  and  _253
REMARK   99  A    between atoms: _253  and  _254
REMARK  100  A    between atoms: _253  and  _256
REMARK  101  A    between atoms: _256  and  _257
REMARK  102  A    between atoms: _257  and  _258
REMARK  103  A    between atoms: _263  and  _265
REMARK  104  A    between atoms: _265  and  _266
REMARK  105  A    between atoms: _265  and  _268
REMARK  106  A    between atoms: _268  and  _269
REMARK  107  A    between atoms: _272  and  _274
REMARK  108  A    between atoms: _274  and  _275
REMARK  109  A    between atoms: _274  and  _277
REMARK  110  A    between atoms: _277  and  _278
REMARK  111  A    between atoms: _280  and  _282
REMARK  112  A    between atoms: _282  and  _283
REMARK  113  A    between atoms: _282  and  _285
REMARK  114  A    between atoms: _285  and  _286
REMARK  115  A    between atoms: _286  and  _287
REMARK  116  A    between atoms: _287  and  _288
REMARK  117  A    between atoms: _288  and  _289
REMARK  118  A    between atoms: _293  and  _295
REMARK  119  A    between atoms: _295  and  _296
REMARK  120  A    between atoms: _295  and  _298
REMARK  121  A    between atoms: _298  and  _299
REMARK  122  A    between atoms: _302  and  _304
REMARK  123  A    between atoms: _304  and  _305
REMARK  124  A    between atoms: _304  and  _307
REMARK  125  A    between atoms: _307  and  _308
REMARK  126  A    between atoms: _313  and  _315
REMARK  127  A    between atoms: _315  and  _316
REMARK  128  A    between atoms: _315  and  _318
REMARK  129  A    between atoms: _318  and  _319
REMARK  130  A    between atoms: _319  and  _320
REMARK  131  A    between atoms: _325  and  _327
REMARK  132  A    between atoms: _327  and  _328
REMARK  133  A    between atoms: _327  and  _330
REMARK  134  A    between atoms: _330  and  _331
REMARK  135  A    between atoms: _334  and  _336
REMARK  136  A    between atoms: _336  and  _337
REMARK  137  A    between atoms: _336  and  _339
REMARK  138  A    between atoms: _339  and  _340
REMARK  139  A    between atoms: _345  and  _346
REMARK  140  A    between atoms: _348  and  _350
REMARK  141  A    between atoms: _350  and  _351
REMARK  142  A    between atoms: _350  and  _353
REMARK  143  A    between atoms: _353  and  _354
REMARK  144  A    between atoms: _354  and  _355
REMARK  145  A    between atoms: _355  and  _356
REMARK  146  A    between atoms: _365  and  _367
REMARK  147  A    between atoms: _367  and  _368
REMARK  148  A    between atoms: _367  and  _370
REMARK  149  A    between atoms: _370  and  _371
REMARK  150  A    between atoms: _371  and  _372
REMARK  151  A    between atoms: _375  and  _377
REMARK  152  A    between atoms: _377  and  _378
REMARK  153  A    between atoms: _377  and  _380
REMARK  154  A    between atoms: _380  and  _381
REMARK  155  A    between atoms: _383  and  _385
REMARK  156  A    between atoms: _385  and  _386
REMARK  157  A    between atoms: _385  and  _388
REMARK  158  A    between atoms: _388  and  _389
REMARK  159  A    between atoms: _392  and  _394
REMARK  160  A    between atoms: _394  and  _395
REMARK  161  A    between atoms: _394  and  _397
REMARK  162  A    between atoms: _397  and  _398
REMARK  163  A    between atoms: _398  and  _399
REMARK  164  A    between atoms: _399  and  _400
REMARK  165  A    between atoms: _409  and  _411
REMARK  166  A    between atoms: _411  and  _412
REMARK  167  A    between atoms: _411  and  _414
REMARK  168  A    between atoms: _414  and  _415
REMARK  169  A    between atoms: _420  and  _422
REMARK  170  A    between atoms: _422  and  _423
REMARK  171  A    between atoms: _422  and  _425
REMARK  172  A    between atoms: _425  and  _426
REMARK  173  A    between atoms: _429  and  _431
REMARK  174  A    between atoms: _431  and  _432
REMARK  175  A    between atoms: _431  and  _434
REMARK  176  A    between atoms: _434  and  _435
REMARK  177  A    between atoms: _440  and  _441
REMARK  178  A    between atoms: _443  and  _445
REMARK  179  A    between atoms: _445  and  _446
REMARK  180  A    between atoms: _445  and  _448
REMARK  181  A    between atoms: _448  and  _449
REMARK  182  A    between atoms: _452  and  _454
REMARK  183  A    between atoms: _454  and  _455
REMARK  184  A    between atoms: _454  and  _457
REMARK  185  A    between atoms: _457  and  _458
REMARK  186  A    between atoms: _458  and  _459
REMARK  187  A    between atoms: _464  and  _466
REMARK  188  A    between atoms: _466  and  _467
REMARK  189  A    between atoms: _466  and  _469
REMARK  190  A    between atoms: _469  and  _470
REMARK  191  A    between atoms: _470  and  _471
REMARK  192  A    between atoms: _471  and  _472
REMARK  193  A    between atoms: _481  and  _483
REMARK  194  A    between atoms: _483  and  _484
REMARK  195  A    between atoms: _483  and  _486
REMARK  196  A    between atoms: _486  and  _487
REMARK  197  A    between atoms: _487  and  _488
REMARK  198  A    between atoms: _490  and  _492
REMARK  199  A    between atoms: _492  and  _493
REMARK  200  A    between atoms: _492  and  _495
REMARK  201  A    between atoms: _495  and  _496
REMARK  202  A    between atoms: _501  and  _502
REMARK  203  A    between atoms: _504  and  _506
REMARK  204  A    between atoms: _506  and  _507
REMARK  205  A    between atoms: _509  and  _511
REMARK  206  A    between atoms: _511  and  _512
REMARK  207  A    between atoms: _511  and  _514
REMARK  208  A    between atoms: _514  and  _515
REMARK  209  A    between atoms: _515  and  _869
REMARK  210  A    between atoms: _516  and  _518
REMARK  211  A    between atoms: _518  and  _519
REMARK  212  A    between atoms: _518  and  _521
REMARK  213  A    between atoms: _521  and  _522
REMARK  214  A    between atoms: _525  and  _527
REMARK  215  A    between atoms: _527  and  _528
REMARK  216  A    between atoms: _527  and  _530
REMARK  217  A    between atoms: _530  and  _531
REMARK  218  A    between atoms: _531  and  _532
REMARK  219  A    between atoms: _537  and  _539
REMARK  220  A    between atoms: _539  and  _540
REMARK  221  A    between atoms: _539  and  _542
REMARK  222  A    between atoms: _542  and  _543
REMARK  223  A    between atoms: _545  and  _547
REMARK  224  A    between atoms: _547  and  _548
REMARK  225  A    between atoms: _551  and  _553
REMARK  226  A    between atoms: _553  and  _554
REMARK  227  A    between atoms: _553  and  _556
REMARK  228  A    between atoms: _556  and  _557
REMARK  229  A    between atoms: _562  and  _563
REMARK  230  A    between atoms: _565  and  _567
REMARK  231  A    between atoms: _567  and  _568
REMARK  232  A    between atoms: _567  and  _570
REMARK  233  A    between atoms: _570  and  _571
REMARK  234  A    between atoms: _576  and  _577
REMARK  235  A    between atoms: _579  and  _581
REMARK  236  A    between atoms: _581  and  _582
REMARK  237  A    between atoms: _581  and  _584
REMARK  238  A    between atoms: _584  and  _585
REMARK  239  A    between atoms: _588  and  _590
REMARK  240  A    between atoms: _590  and  _591
REMARK  241  A    between atoms: _594  and  _596
REMARK  242  A    between atoms: _596  and  _597
REMARK  243  A    between atoms: _596  and  _599
REMARK  244  A    between atoms: _599  and  _600
REMARK  245  A    between atoms: _610  and  _612
REMARK  246  A    between atoms: _612  and  _613
REMARK  247  A    between atoms: _616  and  _618
REMARK  248  A    between atoms: _618  and  _619
REMARK  249  A    between atoms: _622  and  _624
REMARK  250  A    between atoms: _624  and  _625
REMARK  251  A    between atoms: _624  and  _627
REMARK  252  A    between atoms: _627  and  _628
REMARK  253  A    between atoms: _628  and  _629
REMARK  254  A    between atoms: _634  and  _636
REMARK  255  A    between atoms: _636  and  _637
REMARK  256  A    between atoms: _636  and  _639
REMARK  257  A    between atoms: _639  and  _640
REMARK  258  A    between atoms: _643  and  _645
REMARK  259  A    between atoms: _645  and  _646
REMARK  260  A    between atoms: _645  and  _648
REMARK  261  A    between atoms: _648  and  _649
REMARK  262  A    between atoms: _652  and  _654
REMARK  263  A    between atoms: _654  and  _655
REMARK  264  A    between atoms: _654  and  _657
REMARK  265  A    between atoms: _657  and  _658
REMARK  266  A    between atoms: _658  and  _659
REMARK  267  A    between atoms: _664  and  _666
REMARK  268  A    between atoms: _666  and  _667
REMARK  269  A    between atoms: _666  and  _669
REMARK  270  A    between atoms: _669  and  _670
REMARK  271  A    between atoms: _670  and  _671
REMARK  272  A    between atoms: _671  and  _672
REMARK  273  A    between atoms: _681  and  _683
REMARK  274  A    between atoms: _683  and  _684
REMARK  275  A    between atoms: _683  and  _686
REMARK  276  A    between atoms: _686  and  _687
REMARK  277  A    between atoms: _687  and  _688
REMARK  278  A    between atoms: _688  and  _689
REMARK  279  A    between atoms: _689  and  _690
REMARK  280  A    between atoms: _694  and  _696
REMARK  281  A    between atoms: _696  and  _697
REMARK  282  A    between atoms: _696  and  _699
REMARK  283  A    between atoms: _699  and  _700
REMARK  284  A    between atoms: _710  and  _712
REMARK  285  A    between atoms: _712  and  _713
REMARK  286  A    between atoms: _712  and  _715
REMARK  287  A    between atoms: _715  and  _716
REMARK  288  A    between atoms: _716  and  _717
REMARK  289  A    between atoms: _720  and  _722
REMARK  290  A    between atoms: _722  and  _723
REMARK  291  A    between atoms: _726  and  _728
REMARK  292  A    between atoms: _728  and  _729
REMARK  293  A    between atoms: _732  and  _734
REMARK  294  A    between atoms: _734  and  _735
REMARK  295  A    between atoms: _734  and  _737
REMARK  296  A    between atoms: _737  and  _738
REMARK  297  A    between atoms: _738  and  _739
REMARK  298  A    between atoms: _739  and  _740
REMARK  299  A    between atoms: _749  and  _751
REMARK  300  A    between atoms: _751  and  _752
REMARK  301  A    between atoms: _751  and  _754
REMARK  302  A    between atoms: _754  and  _755
REMARK  303  A    between atoms: _755  and  _756
REMARK  304  A    between atoms: _759  and  _761
REMARK  305  A    between atoms: _761  and  _762
REMARK  306  A    between atoms: _765  and  _767
REMARK  307  A    between atoms: _767  and  _768
REMARK  308  A    between atoms: _767  and  _770
REMARK  309  A    between atoms: _770  and  _771
REMARK  310  A    between atoms: _771  and  _772
REMARK  311  A    between atoms: _775  and  _777
REMARK  312  A    between atoms: _777  and  _778
REMARK  313  A    between atoms: _777  and  _780
REMARK  314  A    between atoms: _780  and  _781
REMARK  315  A    between atoms: _781  and  _782
REMARK  316  A    between atoms: _787  and  _789
REMARK  317  A    between atoms: _789  and  _790
REMARK  318  A    between atoms: _789  and  _792
REMARK  319  A    between atoms: _792  and  _793
REMARK  320  A    between atoms: _803  and  _805
REMARK  321  A    between atoms: _805  and  _806
REMARK  322  A    between atoms: _805  and  _808
REMARK  323  A    between atoms: _808  and  _809
REMARK  324  A    between atoms: _809  and  _810
REMARK  325  A    between atoms: _810  and  _811
REMARK  326  A    between atoms: _820  and  _822
REMARK  327  A    between atoms: _822  and  _823
REMARK  328  A    between atoms: _826  and  _828
REMARK  329  A    between atoms: _828  and  _829
REMARK  330  A    between atoms: _828  and  _831
REMARK  331  A    between atoms: _831  and  _832
REMARK  332  A    between atoms: _837  and  _838
REMARK  333  A    between atoms: _840  and  _842
REMARK  334  A    between atoms: _842  and  _843
REMARK  335  A    between atoms: _842  and  _845
REMARK  336  A    between atoms: _845  and  _846
REMARK  337  A    between atoms: _849  and  _851
REMARK  338  A    between atoms: _851  and  _852
REMARK  339  A    between atoms: _854  and  _856
REMARK  340  A    between atoms: _856  and  _857
REMARK  341  A    between atoms: _856  and  _859
REMARK  342  A    between atoms: _859  and  _860
REMARK  343  A    between atoms: _863  and  _865
REMARK  344  A    between atoms: _865  and  _866
REMARK  345  A    between atoms: _865  and  _868
REMARK  346  A    between atoms: _868  and  _869
REMARK  347  A    between atoms: _870  and  _872
REMARK  348  A    between atoms: _872  and  _873
REMARK  349  A    between atoms: _872  and  _875
REMARK  350  A    between atoms: _878  and  _880
REMARK  351  A    between atoms: _880  and  _881
REMARK  352  A    between atoms: _880  and  _883
REMARK  353  A    between atoms: _883  and  _884
REMARK  354  A    between atoms: _884  and  _885
REMARK  355  A    between atoms: _888  and  _890
REMARK  356  A    between atoms: _890  and  _891
REMARK  357  A    between atoms: _890  and  _893
REMARK  358  A    between atoms: _893  and  _894
REMARK  359  A    between atoms: _904  and  _906
REMARK  360  A    between atoms: _906  and  _907
REMARK  361  A    between atoms: _906  and  _909
REMARK  362  A    between atoms: _909  and  _910
REMARK  363  A    between atoms: _913  and  _915
REMARK  364  A    between atoms: _915  and  _916
REMARK  365  A    between atoms: _915  and  _918
REMARK  366  A    between atoms: _918  and  _919
REMARK  367  A    between atoms: _919  and  _920
REMARK  368  A    between atoms: _920  and  _921
REMARK  369  A    between atoms: _930  and  _932
REMARK  370  A    between atoms: _932  and  _933
REMARK  371  A    between atoms: _932  and  _935
REMARK  372  A    between atoms: _935  and  _936
REMARK  373  A    between atoms: _941  and  _942
REMARK  374  A    between atoms: _944  and  _946
REMARK  375  A    between atoms: _946  and  _947
REMARK  376  A    between atoms: _946  and  _949
REMARK  377  A    between atoms: _949  and  _950
REMARK                            x       y       z     vdW  Elec       q    Type
REMARK                         _______ _______ _______ _____ _____    ______ ____
ROOT
ATOM      1  O   HOH     1      27.102  29.903  36.026  0.00  0.00    +0.000 OA
ENDROOT
TORSDOF 0
REMARK  Name = ../refined-set-2016/1xr9/1xr9_pocket.pdb
REMARK  377 active torsions:
REMARK  status: ('A' for Active; 'I' for Inactive)
REMARK    1  A    between atoms: _1  and  _3
REMARK    2  A    between atoms: _3  and  _4
REMARK    3  A    between atoms: _3  and  _6
REMARK    4  A    between atoms: _6  and  _7
REMARK    5  A    between atoms: _7  and  _8
REMARK    6  A    between atoms: _10  and  _12
REMARK    7  A    between atoms: _12  and  _13
REMARK    8  A    between atoms: _12  and  _15
REMARK    9  A    between atoms: _15  and  _16
REMARK   10  A    between atoms: _16  and  _17
REMARK   11  A    between atoms: _17  and  _18
REMARK   12  A    between atoms: _27  and  _29
REMARK   13  A    between atoms: _29  and  _30
REMARK   14  A    between atoms: _29  and  _32
REMARK   15  A    between atoms: _32  and  _33
REMARK   16  A    between atoms: _38  and  _39
REMARK   17  A    between atoms: _41  and  _43
REMARK   18  A    between atoms: _43  and  _44
REMARK   19  A    between atoms: _43  and  _46
REMARK   20  A    between atoms: _46  and  _47
REMARK   21  A    between atoms: _53  and  _55
REMARK   22  A    between atoms: _55  and  _56
REMARK   23  A    between atoms: _55  and  _58
REMARK   24  A    between atoms: _58  and  _59
REMARK   25  A    between atoms: _64  and  _65
REMARK   26  A    between atoms: _67  and  _69
REMARK   27  A    between atoms: _69  and  _70
REMARK   28  A    between atoms: _69  and  _72
REMARK   29  A    between atoms: _72  and  _73
REMARK   30  A    between atoms: _79  and  _81
REMARK   31  A    between atoms: _81  and  _82
REMARK   32  A    between atoms: _85  and  _87
REMARK   33  A    between atoms: _87  and  _88
REMARK   34  A    between atoms: _87  and  _90
REMARK   35  A    between atoms: _93  and  _95
REMARK   36  A    between atoms: _95  and  _96
REMARK   37  A    between atoms: _98  and  _100
REMARK   38  A    between atoms: _100  and  _101
REMARK   39  A    between atoms: _100  and  _103
REMARK   40  A    between atoms: _106  and  _108
REMARK   41  A    between atoms: _108  and  _109
REMARK   42  A    between atoms: _108  and  _111
REMARK   43  A    between atoms: _111  and  _112
REMARK   44  A    between atoms: _118  and  _120
REMARK   45  A    between atoms: _120  and  _121
REMARK   46  A    between atoms: _120  and  _123
REMARK   47  A    between atoms: _126  and  _128
REMARK   48  A    between atoms: _128  and  _129
REMARK   49  A    between atoms: _128  and  _131
REMARK   50  A    between atoms: _131  and  _132
REMARK   51  A    between atoms: _138  and  _140
REMARK   52  A    between atoms: _140  and  _141
REMARK   53  A    between atoms: _140  and  _143
REMARK   54  A    between atoms: _143  and  _144
REMARK   55  A    between atoms: _144  and  _145
REMARK   56  A    between atoms: _147  and  _149
REMARK   57  A    between atoms: _149  and  _150
REMARK   58  A    between atoms: _149  and  _152
REMARK   59  A    between atoms: _152  and  _153
REMARK   60  A    between atoms: _156  and  _158
REMARK   61  A    between atoms: _158  and  _159
REMARK   62  A    between atoms: _158  and  _161
REMARK   63  A    between atoms: _161  and  _162
REMARK   64  A    between atoms: _162  and  _163
REMARK   65  A    between atoms: _166  and  _168
REMARK   66  A    between atoms: _168  and  _169
REMARK   67  A    between atoms: _168  and  _171
REMARK   68  A    between atoms: _171  and  _172
REMARK   69  A    between atoms: _172  and  _173
REMARK   70  A    between atoms: _176  and  _178
REMARK   71  A    between atoms: _178  and  _179
REMARK   72  A    between atoms: _178  and  _181
REMARK   73  A    between atoms: _181  and  _182
REMARK   74  A    between atoms: _187  and  _188
REMARK   75  A    between atoms: _190  and  _192
REMARK   76  A    between atoms: _192  and  _193
REMARK   77  A    between atoms: _192  and  _195
REMARK   78  A    between atoms: _195  and  _196
REMARK   79  A    between atoms: _206  and  _208
REMARK   80  A    between atoms: _208  and  _209
REMARK   81  A    between atoms: _208  and  _211
REMARK   82  A    between atoms: _211  and  _212
REMARK   83  A    between atoms: _215  and  _217
REMARK   84  A    between atoms: _217  and  _218
REMARK   85  A    between atoms: _217  and  _220
REMARK   86  A    between atoms: _220  and  _221
REMARK   87  A    between atoms: _221  and  _222
REMARK   88  A    between atoms: _222  and  _223
REMARK   89  A    between atoms: _232  and  _234
REMARK   90  A    between atoms: _234  and  _235
REMARK   91  A    between atoms: _234  and  _237
REMARK   92  A    between atoms: _237  and  _238
REMARK   93  A    between atoms: _238  and  _239
REMARK   94  A    between atoms: _242  and  _244
REMARK   95  A    between atoms: _244  and  _245
REMARK   96  A    between atoms: _244  and  _247
REMARK   97  A    between atoms: _247  and  _248
REMARK   98  A    between atoms: _251  and  _253
REMARK   99  A    between atoms: _253  and  _254
REMARK  100  A    between atoms: _253  and  _256
REMARK  101  A    between atoms: _256  and  _257
REMARK  102  A    between atoms: _257  and  _258
REMARK  103  A    between atoms: _263  and  _265
REMARK  104  A    between atoms: _265  and  _266
REMARK  105  A    between atoms: _265  and  _268
REMARK  106  A    between atoms: _268  and  _269
REMARK  107  A    between atoms: _272  and  _274
REMARK  108  A    between atoms: _274  and  _275
REMARK  109  A    between atoms: _274  and  _277
REMARK  110  A    between atoms: _277  and  _278
REMARK  111  A    between atoms: _280  and  _282
REMARK  112  A    between atoms: _282  and  _283
REMARK  113  A    between atoms: _282  and  _285
REMARK  114  A    between atoms: _285  and  _286
REMARK  115  A    between atoms: _286  and  _287
REMARK  116  A    between atoms: _287  and  _288
REMARK  117  A    between atoms: _288  and  _289
REMARK  118  A    between atoms: _293  and  _295
REMARK  119  A    between atoms: _295  and  _296
REMARK  120  A    between atoms: _295  and  _298
REMARK  121  A    between atoms: _298  and  _299
REMARK  122  A    between atoms: _302  and  _304
REMARK  123  A    between atoms: _304  and  _305
REMARK  124  A    between atoms: _304  and  _307
REMARK  125  A    between atoms: _307  and  _308
REMARK  126  A    between atoms: _313  and  _315
REMARK  127  A    between atoms: _315  and  _316
REMARK  128  A    between atoms: _315  and  _318
REMARK  129  A    between atoms: _318  and  _319
REMARK  130  A    between atoms: _319  and  _320
REMARK  131  A    between atoms: _325  and  _327
REMARK  132  A    between atoms: _327  and  _328
REMARK  133  A    between atoms: _327  and  _330
REMARK  134  A    between atoms: _330  and  _331
REMARK  135  A    between atoms: _334  and  _336
REMARK  136  A    between atoms: _336  and  _337
REMARK  137  A    between atoms: _336  and  _339
REMARK  138  A    between atoms: _339  and  _340
REMARK  139  A    between atoms: _345  and  _346
REMARK  140  A    between atoms: _348  and  _350
REMARK  141  A    between atoms: _350  and  _351
REMARK  142  A    between atoms: _350  and  _353
REMARK  143  A    between atoms: _353  and  _354
REMARK  144  A    between atoms: _354  and  _355
REMARK  145  A    between atoms: _355  and  _356
REMARK  146  A    between atoms: _365  and  _367
REMARK  147  A    between atoms: _367  and  _368
REMARK  148  A    between atoms: _367  and  _370
REMARK  149  A    between atoms: _370  and  _371
REMARK  150  A    between atoms: _371  and  _372
REMARK  151  A    between atoms: _375  and  _377
REMARK  152  A    between atoms: _377  and  _378
REMARK  153  A    between atoms: _377  and  _380
REMARK  154  A    between atoms: _380  and  _381
REMARK  155  A    between atoms: _383  and  _385
REMARK  156  A    between atoms: _385  and  _386
REMARK  157  A    between atoms: _385  and  _388
REMARK  158  A    between atoms: _388  and  _389
REMARK  159  A    between atoms: _392  and  _394
REMARK  160  A    between atoms: _394  and  _395
REMARK  161  A    between atoms: _394  and  _397
REMARK  162  A    between atoms: _397  and  _398
REMARK  163  A    between atoms: _398  and  _399
REMARK  164  A    between atoms: _399  and  _400
REMARK  165  A    between atoms: _409  and  _411
REMARK  166  A    between atoms: _411  and  _412
REMARK  167  A    between atoms: _411  and  _414
REMARK  168  A    between atoms: _414  and  _415
REMARK  169  A    between atoms: _420  and  _422
REMARK  170  A    between atoms: _422  and  _423
REMARK  171  A    between atoms: _422  and  _425
REMARK  172  A    between atoms: _425  and  _426
REMARK  173  A    between atoms: _429  and  _431
REMARK  174  A    between atoms: _431  and  _432
REMARK  175  A    between atoms: _431  and  _434
REMARK  176  A    between atoms: _434  and  _435
REMARK  177  A    between atoms: _440  and  _441
REMARK  178  A    between atoms: _443  and  _445
REMARK  179  A    between atoms: _445  and  _446
REMARK  180  A    between atoms: _445  and  _448
REMARK  181  A    between atoms: _448  and  _449
REMARK  182  A    between atoms: _452  and  _454
REMARK  183  A    between atoms: _454  and  _455
REMARK  184  A    between atoms: _454  and  _457
REMARK  185  A    between atoms: _457  and  _458
REMARK  186  A    between atoms: _458  and  _459
REMARK  187  A    between atoms: _464  and  _466
REMARK  188  A    between atoms: _466  and  _467
REMARK  189  A    between atoms: _466  and  _469
REMARK  190  A    between atoms: _469  and  _470
REMARK  191  A    between atoms: _470  and  _471
REMARK  192  A    between atoms: _471  and  _472
REMARK  193  A    between atoms: _481  and  _483
REMARK  194  A    between atoms: _483  and  _484
REMARK  195  A    between atoms: _483  and  _486
REMARK  196  A    between atoms: _486  and  _487
REMARK  197  A    between atoms: _487  and  _488
REMARK  198  A    between atoms: _490  and  _492
REMARK  199  A    between atoms: _492  and  _493
REMARK  200  A    between atoms: _492  and  _495
REMARK  201  A    between atoms: _495  and  _496
REMARK  202  A    between atoms: _501  and  _502
REMARK  203  A    between atoms: _504  and  _506
REMARK  204  A    between atoms: _506  and  _507
REMARK  205  A    between atoms: _509  and  _511
REMARK  206  A    between atoms: _511  and  _512
REMARK  207  A    between atoms: _511  and  _514
REMARK  208  A    between atoms: _514  and  _515
REMARK  209  A    between atoms: _515  and  _869
REMARK  210  A    between atoms: _516  and  _518
REMARK  211  A    between atoms: _518  and  _519
REMARK  212  A    between atoms: _518  and  _521
REMARK  213  A    between atoms: _521  and  _522
REMARK  214  A    between atoms: _525  and  _527
REMARK  215  A    between atoms: _527  and  _528
REMARK  216  A    between atoms: _527  and  _530
REMARK  217  A    between atoms: _530  and  _531
REMARK  218  A    between atoms: _531  and  _532
REMARK  219  A    between atoms: _537  and  _539
REMARK  220  A    between atoms: _539  and  _540
REMARK  221  A    between atoms: _539  and  _542
REMARK  222  A    between atoms: _542  and  _543
REMARK  223  A    between atoms: _545  and  _547
REMARK  224  A    between atoms: _547  and  _548
REMARK  225  A    between atoms: _551  and  _553
REMARK  226  A    between atoms: _553  and  _554
REMARK  227  A    between atoms: _553  and  _556
REMARK  228  A    between atoms: _556  and  _557
REMARK  229  A    between atoms: _562  and  _563
REMARK  230  A    between atoms: _565  and  _567
REMARK  231  A    between atoms: _567  and  _568
REMARK  232  A    between atoms: _567  and  _570
REMARK  233  A    between atoms: _570  and  _571
REMARK  234  A    between atoms: _576  and  _577
REMARK  235  A    between atoms: _579  and  _581
REMARK  236  A    between atoms: _581  and  _582
REMARK  237  A    between atoms: _581  and  _584
REMARK  238  A    between atoms: _584  and  _585
REMARK  239  A    between atoms: _588  and  _590
REMARK  240  A    between atoms: _590  and  _591
REMARK  241  A    between atoms: _594  and  _596
REMARK  242  A    between atoms: _596  and  _597
REMARK  243  A    between atoms: _596  and  _599
REMARK  244  A    between atoms: _599  and  _600
REMARK  245  A    between atoms: _610  and  _612
REMARK  246  A    between atoms: _612  and  _613
REMARK  247  A    between atoms: _616  and  _618
REMARK  248  A    between atoms: _618  and  _619
REMARK  249  A    between atoms: _622  and  _624
REMARK  250  A    between atoms: _624  and  _625
REMARK  251  A    between atoms: _624  and  _627
REMARK  252  A    between atoms: _627  and  _628
REMARK  253  A    between atoms: _628  and  _629
REMARK  254  A    between atoms: _634  and  _636
REMARK  255  A    between atoms: _636  and  _637
REMARK  256  A    between atoms: _636  and  _639
REMARK  257  A    between atoms: _639  and  _640
REMARK  258  A    between atoms: _643  and  _645
REMARK  259  A    between atoms: _645  and  _646
REMARK  260  A    between atoms: _645  and  _648
REMARK  261  A    between atoms: _648  and  _649
REMARK  262  A    between atoms: _652  and  _654
REMARK  263  A    between atoms: _654  and  _655
REMARK  264  A    between atoms: _654  and  _657
REMARK  265  A    between atoms: _657  and  _658
REMARK  266  A    between atoms: _658  and  _659
REMARK  267  A    between atoms: _664  and  _666
REMARK  268  A    between atoms: _666  and  _667
REMARK  269  A    between atoms: _666  and  _669
REMARK  270  A    between atoms: _669  and  _670
REMARK  271  A    between atoms: _670  and  _671
REMARK  272  A    between atoms: _671  and  _672
REMARK  273  A    between atoms: _681  and  _683
REMARK  274  A    between atoms: _683  and  _684
REMARK  275  A    between atoms: _683  and  _686
REMARK  276  A    between atoms: _686  and  _687
REMARK  277  A    between atoms: _687  and  _688
REMARK  278  A    between atoms: _688  and  _689
REMARK  279  A    between atoms: _689  and  _690
REMARK  280  A    between atoms: _694  and  _696
REMARK  281  A    between atoms: _696  and  _697
REMARK  282  A    between atoms: _696  and  _699
REMARK  283  A    between atoms: _699  and  _700
REMARK  284  A    between atoms: _710  and  _712
REMARK  285  A    between atoms: _712  and  _713
REMARK  286  A    between atoms: _712  and  _715
REMARK  287  A    between atoms: _715  and  _716
REMARK  288  A    between atoms: _716  and  _717
REMARK  289  A    between atoms: _720  and  _722
REMARK  290  A    between atoms: _722  and  _723
REMARK  291  A    between atoms: _726  and  _728
REMARK  292  A    between atoms: _728  and  _729
REMARK  293  A    between atoms: _732  and  _734
REMARK  294  A    between atoms: _734  and  _735
REMARK  295  A    between atoms: _734  and  _737
REMARK  296  A    between atoms: _737  and  _738
REMARK  297  A    between atoms: _738  and  _739
REMARK  298  A    between atoms: _739  and  _740
REMARK  299  A    between atoms: _749  and  _751
REMARK  300  A    between atoms: _751  and  _752
REMARK  301  A    between atoms: _751  and  _754
REMARK  302  A    between atoms: _754  and  _755
REMARK  303  A    between atoms: _755  and  _756
REMARK  304  A    between atoms: _759  and  _761
REMARK  305  A    between atoms: _761  and  _762
REMARK  306  A    between atoms: _765  and  _767
REMARK  307  A    between atoms: _767  and  _768
REMARK  308  A    between atoms: _767  and  _770
REMARK  309  A    between atoms: _770  and  _771
REMARK  310  A    between atoms: _771  and  _772
REMARK  311  A    between atoms: _775  and  _777
REMARK  312  A    between atoms: _777  and  _778
REMARK  313  A    between atoms: _777  and  _780
REMARK  314  A    between atoms: _780  and  _781
REMARK  315  A    between atoms: _781  and  _782
REMARK  316  A    between atoms: _787  and  _789
REMARK  317  A    between atoms: _789  and  _790
REMARK  318  A    between atoms: _789  and  _792
REMARK  319  A    between atoms: _792  and  _793
REMARK  320  A    between atoms: _803  and  _805
REMARK  321  A    between atoms: _805  and  _806
REMARK  322  A    between atoms: _805  and  _808
REMARK  323  A    between atoms: _808  and  _809
REMARK  324  A    between atoms: _809  and  _810
REMARK  325  A    between atoms: _810  and  _811
REMARK  326  A    between atoms: _820  and  _822
REMARK  327  A    between atoms: _822  and  _823
REMARK  328  A    between atoms: _826  and  _828
REMARK  329  A    between atoms: _828  and  _829
REMARK  330  A    between atoms: _828  and  _831
REMARK  331  A    between atoms: _831  and  _832
REMARK  332  A    between atoms: _837  and  _838
REMARK  333  A    between atoms: _840  and  _842
REMARK  334  A    between atoms: _842  and  _843
REMARK  335  A    between atoms: _842  and  _845
REMARK  336  A    between atoms: _845  and  _846
REMARK  337  A    between atoms: _849  and  _851
REMARK  338  A    between atoms: _851  and  _852
REMARK  339  A    between atoms: _854  and  _856
REMARK  340  A    between atoms: _856  and  _857
REMARK  341  A    between atoms: _856  and  _859
REMARK  342  A    between atoms: _859  and  _860
REMARK  343  A    between atoms: _863  and  _865
REMARK  344  A    between atoms: _865  and  _866
REMARK  345  A    between atoms: _865  and  _868
REMARK  346  A    between atoms: _868  and  _869
REMARK  347  A    between atoms: _870  and  _872
REMARK  348  A    between atoms: _872  and  _873
REMARK  349  A    between atoms: _872  and  _875
REMARK  350  A    between atoms: _878  and  _880
REMARK  351  A    between atoms: _880  and  _881
REMARK  352  A    between atoms: _880  and  _883
REMARK  353  A    between atoms: _883  and  _884
REMARK  354  A    between atoms: _884  and  _885
REMARK  355  A    between atoms: _888  and  _890
REMARK  356  A    between atoms: _890  and  _891
REMARK  357  A    between atoms: _890  and  _893
REMARK  358  A    between atoms: _893  and  _894
REMARK  359  A    between atoms: _904  and  _906
REMARK  360  A    between atoms: _906  and  _907
REMARK  361  A    between atoms: _906  and  _909
REMARK  362  A    between atoms: _909  and  _910
REMARK  363  A    between atoms: _913  and  _915
REMARK  364  A    between atoms: _915  and  _916
REMARK  365  A    between atoms: _915  and  _918
REMARK  366  A    between atoms: _918  and  _919
REMARK  367  A    between atoms: _919  and  _920
REMARK  368  A    between atoms: _920  and  _921
REMARK  369  A    between atoms: _930  and  _932
REMARK  370  A    between atoms: _932  and  _933
REMARK  371  A    between atoms: _932  and  _935
REMARK  372  A    between atoms: _935  and  _936
REMARK  373  A    between atoms: _941  and  _942
REMARK  374  A    between atoms: _944  and  _946
REMARK  375  A    between atoms: _946  and  _947
REMARK  376  A    between atoms: _946  and  _949
REMARK  377  A    between atoms: _949  and  _950
REMARK                            x       y       z     vdW  Elec       q    Type
REMARK                         _______ _______ _______ _____ _____    ______ ____
ROOT
ATOM      1  O   HOH     1      11.552  22.447  44.126  0.00  0.00    +0.000 OA
ENDROOT
TORSDOF 0
REMARK  Name = ../refined-set-2016/1xr9/1xr9_pocket.pdb
REMARK  377 active torsions:
REMARK  status: ('A' for Active; 'I' for Inactive)
REMARK    1  A    between atoms: _1  and  _3
REMARK    2  A    between atoms: _3  and  _4
REMARK    3  A    between atoms: _3  and  _6
REMARK    4  A    between atoms: _6  and  _7
REMARK    5  A    between atoms: _7  and  _8
REMARK    6  A    between atoms: _10  and  _12
REMARK    7  A    between atoms: _12  and  _13
REMARK    8  A    between atoms: _12  and  _15
REMARK    9  A    between atoms: _15  and  _16
REMARK   10  A    between atoms: _16  and  _17
REMARK   11  A    between atoms: _17  and  _18
REMARK   12  A    between atoms: _27  and  _29
REMARK   13  A    between atoms: _29  and  _30
REMARK   14  A    between atoms: _29  and  _32
REMARK   15  A    between atoms: _32  and  _33
REMARK   16  A    between atoms: _38  and  _39
REMARK   17  A    between atoms: _41  and  _43
REMARK   18  A    between atoms: _43  and  _44
REMARK   19  A    between atoms: _43  and  _46
REMARK   20  A    between atoms: _46  and  _47
REMARK   21  A    between atoms: _53  and  _55
REMARK   22  A    between atoms: _55  and  _56
REMARK   23  A    between atoms: _55  and  _58
REMARK   24  A    between atoms: _58  and  _59
REMARK   25  A    between atoms: _64  and  _65
REMARK   26  A    between atoms: _67  and  _69
REMARK   27  A    between atoms: _69  and  _70
REMARK   28  A    between atoms: _69  and  _72
REMARK   29  A    between atoms: _72  and  _73
REMARK   30  A    between atoms: _79  and  _81
REMARK   31  A    between atoms: _81  and  _82
REMARK   32  A    between atoms: _85  and  _87
REMARK   33  A    between atoms: _87  and  _88
REMARK   34  A    between atoms: _87  and  _90
REMARK   35  A    between atoms: _93  and  _95
REMARK   36  A    between atoms: _95  and  _96
REMARK   37  A    between atoms: _98  and  _100
REMARK   38  A    between atoms: _100  and  _101
REMARK   39  A    between atoms: _100  and  _103
REMARK   40  A    between atoms: _106  and  _108
REMARK   41  A    between atoms: _108  and  _109
REMARK   42  A    between atoms: _108  and  _111
REMARK   43  A    between atoms: _111  and  _112
REMARK   44  A    between atoms: _118  and  _120
REMARK   45  A    between atoms: _120  and  _121
REMARK   46  A    between atoms: _120  and  _123
REMARK   47  A    between atoms: _126  and  _128
REMARK   48  A    between atoms: _128  and  _129
REMARK   49  A    between atoms: _128  and  _131
REMARK   50  A    between atoms: _131  and  _132
REMARK   51  A    between atoms: _138  and  _140
REMARK   52  A    between atoms: _140  and  _141
REMARK   53  A    between atoms: _140  and  _143
REMARK   54  A    between atoms: _143  and  _144
REMARK   55  A    between atoms: _144  and  _145
REMARK   56  A    between atoms: _147  and  _149
REMARK   57  A    between atoms: _149  and  _150
REMARK   58  A    between atoms: _149  and  _152
REMARK   59  A    between atoms: _152  and  _153
REMARK   60  A    between atoms: _156  and  _158
REMARK   61  A    between atoms: _158  and  _159
REMARK   62  A    between atoms: _158  and  _161
REMARK   63  A    between atoms: _161  and  _162
REMARK   64  A    between atoms: _162  and  _163
REMARK   65  A    between atoms: _166  and  _168
REMARK   66  A    between atoms: _168  and  _169
REMARK   67  A    between atoms: _168  and  _171
REMARK   68  A    between atoms: _171  and  _172
REMARK   69  A    between atoms: _172  and  _173
REMARK   70  A    between atoms: _176  and  _178
REMARK   71  A    between atoms: _178  and  _179
REMARK   72  A    between atoms: _178  and  _181
REMARK   73  A    between atoms: _181  and  _182
REMARK   74  A    between atoms: _187  and  _188
REMARK   75  A    between atoms: _190  and  _192
REMARK   76  A    between atoms: _192  and  _193
REMARK   77  A    between atoms: _192  and  _195
REMARK   78  A    between atoms: _195  and  _196
REMARK   79  A    between atoms: _206  and  _208
REMARK   80  A    between atoms: _208  and  _209
REMARK   81  A    between atoms: _208  and  _211
REMARK   82  A    between atoms: _211  and  _212
REMARK   83  A    between atoms: _215  and  _217
REMARK   84  A    between atoms: _217  and  _218
REMARK   85  A    between atoms: _217  and  _220
REMARK   86  A    between atoms: _220  and  _221
REMARK   87  A    between atoms: _221  and  _222
REMARK   88  A    between atoms: _222  and  _223
REMARK   89  A    between atoms: _232  and  _234
REMARK   90  A    between atoms: _234  and  _235
REMARK   91  A    between atoms: _234  and  _237
REMARK   92  A    between atoms: _237  and  _238
REMARK   93  A    between atoms: _238  and  _239
REMARK   94  A    between atoms: _242  and  _244
REMARK   95  A    between atoms: _244  and  _245
REMARK   96  A    between atoms: _244  and  _247
REMARK   97  A    between atoms: _247  and  _248
REMARK   98  A    between atoms: _251  and  _253
REMARK   99  A    between atoms: _253  and  _254
REMARK  100  A    between atoms: _253  and  _256
REMARK  101  A    between atoms: _256  and  _257
REMARK  102  A    between atoms: _257  and  _258
REMARK  103  A    between atoms: _263  and  _265
REMARK  104  A    between atoms: _265  and  _266
REMARK  105  A    between atoms: _265  and  _268
REMARK  106  A    between atoms: _268  and  _269
REMARK  107  A    between atoms: _272  and  _274
REMARK  108  A    between atoms: _274  and  _275
REMARK  109  A    between atoms: _274  and  _277
REMARK  110  A    between atoms: _277  and  _278
REMARK  111  A    between atoms: _280  and  _282
REMARK  112  A    between atoms: _282  and  _283
REMARK  113  A    between atoms: _282  and  _285
REMARK  114  A    between atoms: _285  and  _286
REMARK  115  A    between atoms: _286  and  _287
REMARK  116  A    between atoms: _287  and  _288
REMARK  117  A    between atoms: _288  and  _289
REMARK  118  A    between atoms: _293  and  _295
REMARK  119  A    between atoms: _295  and  _296
REMARK  120  A    between atoms: _295  and  _298
REMARK  121  A    between atoms: _298  and  _299
REMARK  122  A    between atoms: _302  and  _304
REMARK  123  A    between atoms: _304  and  _305
REMARK  124  A    between atoms: _304  and  _307
REMARK  125  A    between atoms: _307  and  _308
REMARK  126  A    between atoms: _313  and  _315
REMARK  127  A    between atoms: _315  and  _316
REMARK  128  A    between atoms: _315  and  _318
REMARK  129  A    between atoms: _318  and  _319
REMARK  130  A    between atoms: _319  and  _320
REMARK  131  A    between atoms: _325  and  _327
REMARK  132  A    between atoms: _327  and  _328
REMARK  133  A    between atoms: _327  and  _330
REMARK  134  A    between atoms: _330  and  _331
REMARK  135  A    between atoms: _334  and  _336
REMARK  136  A    between atoms: _336  and  _337
REMARK  137  A    between atoms: _336  and  _339
REMARK  138  A    between atoms: _339  and  _340
REMARK  139  A    between atoms: _345  and  _346
REMARK  140  A    between atoms: _348  and  _350
REMARK  141  A    between atoms: _350  and  _351
REMARK  142  A    between atoms: _350  and  _353
REMARK  143  A    between atoms: _353  and  _354
REMARK  144  A    between atoms: _354  and  _355
REMARK  145  A    between atoms: _355  and  _356
REMARK  146  A    between atoms: _365  and  _367
REMARK  147  A    between atoms: _367  and  _368
REMARK  148  A    between atoms: _367  and  _370
REMARK  149  A    between atoms: _370  and  _371
REMARK  150  A    between atoms: _371  and  _372
REMARK  151  A    between atoms: _375  and  _377
REMARK  152  A    between atoms: _377  and  _378
REMARK  153  A    between atoms: _377  and  _380
REMARK  154  A    between atoms: _380  and  _381
REMARK  155  A    between atoms: _383  and  _385
REMARK  156  A    between atoms: _385  and  _386
REMARK  157  A    between atoms: _385  and  _388
REMARK  158  A    between atoms: _388  and  _389
REMARK  159  A    between atoms: _392  and  _394
REMARK  160  A    between atoms: _394  and  _395
REMARK  161  A    between atoms: _394  and  _397
REMARK  162  A    between atoms: _397  and  _398
REMARK  163  A    between atoms: _398  and  _399
REMARK  164  A    between atoms: _399  and  _400
REMARK  165  A    between atoms: _409  and  _411
REMARK  166  A    between atoms: _411  and  _412
REMARK  167  A    between atoms: _411  and  _414
REMARK  168  A    between atoms: _414  and  _415
REMARK  169  A    between atoms: _420  and  _422
REMARK  170  A    between atoms: _422  and  _423
REMARK  171  A    between atoms: _422  and  _425
REMARK  172  A    between atoms: _425  and  _426
REMARK  173  A    between atoms: _429  and  _431
REMARK  174  A    between atoms: _431  and  _432
REMARK  175  A    between atoms: _431  and  _434
REMARK  176  A    between atoms: _434  and  _435
REMARK  177  A    between atoms: _440  and  _441
REMARK  178  A    between atoms: _443  and  _445
REMARK  179  A    between atoms: _445  and  _446
REMARK  180  A    between atoms: _445  and  _448
REMARK  181  A    between atoms: _448  and  _449
REMARK  182  A    between atoms: _452  and  _454
REMARK  183  A    between atoms: _454  and  _455
REMARK  184  A    between atoms: _454  and  _457
REMARK  185  A    between atoms: _457  and  _458
REMARK  186  A    between atoms: _458  and  _459
REMARK  187  A    between atoms: _464  and  _466
REMARK  188  A    between atoms: _466  and  _467
REMARK  189  A    between atoms: _466  and  _469
REMARK  190  A    between atoms: _469  and  _470
REMARK  191  A    between atoms: _470  and  _471
REMARK  192  A    between atoms: _471  and  _472
REMARK  193  A    between atoms: _481  and  _483
REMARK  194  A    between atoms: _483  and  _484
REMARK  195  A    between atoms: _483  and  _486
REMARK  196  A    between atoms: _486  and  _487
REMARK  197  A    between atoms: _487  and  _488
REMARK  198  A    between atoms: _490  and  _492
REMARK  199  A    between atoms: _492  and  _493
REMARK  200  A    between atoms: _492  and  _495
REMARK  201  A    between atoms: _495  and  _496
REMARK  202  A    between atoms: _501  and  _502
REMARK  203  A    between atoms: _504  and  _506
REMARK  204  A    between atoms: _506  and  _507
REMARK  205  A    between atoms: _509  and  _511
REMARK  206  A    between atoms: _511  and  _512
REMARK  207  A    between atoms: _511  and  _514
REMARK  208  A    between atoms: _514  and  _515
REMARK  209  A    between atoms: _515  and  _869
REMARK  210  A    between atoms: _516  and  _518
REMARK  211  A    between atoms: _518  and  _519
REMARK  212  A    between atoms: _518  and  _521
REMARK  213  A    between atoms: _521  and  _522
REMARK  214  A    between atoms: _525  and  _527
REMARK  215  A    between atoms: _527  and  _528
REMARK  216  A    between atoms: _527  and  _530
REMARK  217  A    between atoms: _530  and  _531
REMARK  218  A    between atoms: _531  and  _532
REMARK  219  A    between atoms: _537  and  _539
REMARK  220  A    between atoms: _539  and  _540
REMARK  221  A    between atoms: _539  and  _542
REMARK  222  A    between atoms: _542  and  _543
REMARK  223  A    between atoms: _545  and  _547
REMARK  224  A    between atoms: _547  and  _548
REMARK  225  A    between atoms: _551  and  _553
REMARK  226  A    between atoms: _553  and  _554
REMARK  227  A    between atoms: _553  and  _556
REMARK  228  A    between atoms: _556  and  _557
REMARK  229  A    between atoms: _562  and  _563
REMARK  230  A    between atoms: _565  and  _567
REMARK  231  A    between atoms: _567  and  _568
REMARK  232  A    between atoms: _567  and  _570
REMARK  233  A    between atoms: _570  and  _571
REMARK  234  A    between atoms: _576  and  _577
REMARK  235  A    between atoms: _579  and  _581
REMARK  236  A    between atoms: _581  and  _582
REMARK  237  A    between atoms: _581  and  _584
REMARK  238  A    between atoms: _584  and  _585
REMARK  239  A    between atoms: _588  and  _590
REMARK  240  A    between atoms: _590  and  _591
REMARK  241  A    between atoms: _594  and  _596
REMARK  242  A    between atoms: _596  and  _597
REMARK  243  A    between atoms: _596  and  _599
REMARK  244  A    between atoms: _599  and  _600
REMARK  245  A    between atoms: _610  and  _612
REMARK  246  A    between atoms: _612  and  _613
REMARK  247  A    between atoms: _616  and  _618
REMARK  248  A    between atoms: _618  and  _619
REMARK  249  A    between atoms: _622  and  _624
REMARK  250  A    between atoms: _624  and  _625
REMARK  251  A    between atoms: _624  and  _627
REMARK  252  A    between atoms: _627  and  _628
REMARK  253  A    between atoms: _628  and  _629
REMARK  254  A    between atoms: _634  and  _636
REMARK  255  A    between atoms: _636  and  _637
REMARK  256  A    between atoms: _636  and  _639
REMARK  257  A    between atoms: _639  and  _640
REMARK  258  A    between atoms: _643  and  _645
REMARK  259  A    between atoms: _645  and  _646
REMARK  260  A    between atoms: _645  and  _648
REMARK  261  A    between atoms: _648  and  _649
REMARK  262  A    between atoms: _652  and  _654
REMARK  263  A    between atoms: _654  and  _655
REMARK  264  A    between atoms: _654  and  _657
REMARK  265  A    between atoms: _657  and  _658
REMARK  266  A    between atoms: _658  and  _659
REMARK  267  A    between atoms: _664  and  _666
REMARK  268  A    between atoms: _666  and  _667
REMARK  269  A    between atoms: _666  and  _669
REMARK  270  A    between atoms: _669  and  _670
REMARK  271  A    between atoms: _670  and  _671
REMARK  272  A    between atoms: _671  and  _672
REMARK  273  A    between atoms: _681  and  _683
REMARK  274  A    between atoms: _683  and  _684
REMARK  275  A    between atoms: _683  and  _686
REMARK  276  A    between atoms: _686  and  _687
REMARK  277  A    between atoms: _687  and  _688
REMARK  278  A    between atoms: _688  and  _689
REMARK  279  A    between atoms: _689  and  _690
REMARK  280  A    between atoms: _694  and  _696
REMARK  281  A    between atoms: _696  and  _697
REMARK  282  A    between atoms: _696  and  _699
REMARK  283  A    between atoms: _699  and  _700
REMARK  284  A    between atoms: _710  and  _712
REMARK  285  A    between atoms: _712  and  _713
REMARK  286  A    between atoms: _712  and  _715
REMARK  287  A    between atoms: _715  and  _716
REMARK  288  A    between atoms: _716  and  _717
REMARK  289  A    between atoms: _720  and  _722
REMARK  290  A    between atoms: _722  and  _723
REMARK  291  A    between atoms: _726  and  _728
REMARK  292  A    between atoms: _728  and  _729
REMARK  293  A    between atoms: _732  and  _734
REMARK  294  A    between atoms: _734  and  _735
REMARK  295  A    between atoms: _734  and  _737
REMARK  296  A    between atoms: _737  and  _738
REMARK  297  A    between atoms: _738  and  _739
REMARK  298  A    between atoms: _739  and  _740
REMARK  299  A    between atoms: _749  and  _751
REMARK  300  A    between atoms: _751  and  _752
REMARK  301  A    between atoms: _751  and  _754
REMARK  302  A    between atoms: _754  and  _755
REMARK  303  A    between atoms: _755  and  _756
REMARK  304  A    between atoms: _759  and  _761
REMARK  305  A    between atoms: _761  and  _762
REMARK  306  A    between atoms: _765  and  _767
REMARK  307  A    between atoms: _767  and  _768
REMARK  308  A    between atoms: _767  and  _770
REMARK  309  A    between atoms: _770  and  _771
REMARK  310  A    between atoms: _771  and  _772
REMARK  311  A    between atoms: _775  and  _777
REMARK  312  A    between atoms: _777  and  _778
REMARK  313  A    between atoms: _777  and  _780
REMARK  314  A    between atoms: _780  and  _781
REMARK  315  A    between atoms: _781  and  _782
REMARK  316  A    between atoms: _787  and  _789
REMARK  317  A    between atoms: _789  and  _790
REMARK  318  A    between atoms: _789  and  _792
REMARK  319  A    between atoms: _792  and  _793
REMARK  320  A    between atoms: _803  and  _805
REMARK  321  A    between atoms: _805  and  _806
REMARK  322  A    between atoms: _805  and  _808
REMARK  323  A    between atoms: _808  and  _809
REMARK  324  A    between atoms: _809  and  _810
REMARK  325  A    between atoms: _810  and  _811
REMARK  326  A    between atoms: _820  and  _822
REMARK  327  A    between atoms: _822  and  _823
REMARK  328  A    between atoms: _826  and  _828
REMARK  329  A    between atoms: _828  and  _829
REMARK  330  A    between atoms: _828  and  _831
REMARK  331  A    between atoms: _831  and  _832
REMARK  332  A    between atoms: _837  and  _838
REMARK  333  A    between atoms: _840  and  _842
REMARK  334  A    between atoms: _842  and  _843
REMARK  335  A    between atoms: _842  and  _845
REMARK  336  A    between atoms: _845  and  _846
REMARK  337  A    between atoms: _849  and  _851
REMARK  338  A    between atoms: _851  and  _852
REMARK  339  A    between atoms: _854  and  _856
REMARK  340  A    between atoms: _856  and  _857
REMARK  341  A    between atoms: _856  and  _859
REMARK  342  A    between atoms: _859  and  _860
REMARK  343  A    between atoms: _863  and  _865
REMARK  344  A    between atoms: _865  and  _866
REMARK  345  A    between atoms: _865  and  _868
REMARK  346  A    between atoms: _868  and  _869
REMARK  347  A    between atoms: _870  and  _872
REMARK  348  A    between atoms: _872  and  _873
REMARK  349  A    between atoms: _872  and  _875
REMARK  350  A    between atoms: _878  and  _880
REMARK  351  A    between atoms: _880  and  _881
REMARK  352  A    between atoms: _880  and  _883
REMARK  353  A    between atoms: _883  and  _884
REMARK  354  A    between atoms: _884  and  _885
REMARK  355  A    between atoms: _888  and  _890
REMARK  356  A    between atoms: _890  and  _891
REMARK  357  A    between atoms: _890  and  _893
REMARK  358  A    between atoms: _893  and  _894
REMARK  359  A    between atoms: _904  and  _906
REMARK  360  A    between atoms: _906  and  _907
REMARK  361  A    between atoms: _906  and  _909
REMARK  362  A    between atoms: _909  and  _910
REMARK  363  A    between atoms: _913  and  _915
REMARK  364  A    between atoms: _915  and  _916
REMARK  365  A    between atoms: _915  and  _918
REMARK  366  A    between atoms: _918  and  _919
REMARK  367  A    between atoms: _919  and  _920
REMARK  368  A    between atoms: _920  and  _921
REMARK  369  A    between atoms: _930  and  _932
REMARK  370  A    between atoms: _932  and  _933
REMARK  371  A    between atoms: _932  and  _935
REMARK  372  A    between atoms: _935  and  _936
REMARK  373  A    between atoms: _941  and  _942
REMARK  374  A    between atoms: _944  and  _946
REMARK  375  A    between atoms: _946  and  _947
REMARK  376  A    between atoms: _946  and  _949
REMARK  377  A    between atoms: _949  and  _950
REMARK                            x       y       z     vdW  Elec       q    Type
REMARK                         _______ _______ _______ _____ _____    ______ ____
ROOT
ATOM      1  O   HOH     1       6.822  30.098  44.291  0.00  0.00    +0.000 OA
ENDROOT
TORSDOF 0
REMARK  Name = ../refined-set-2016/1xr9/1xr9_pocket.pdb
REMARK  377 active torsions:
REMARK  status: ('A' for Active; 'I' for Inactive)
REMARK    1  A    between atoms: _1  and  _3
REMARK    2  A    between atoms: _3  and  _4
REMARK    3  A    between atoms: _3  and  _6
REMARK    4  A    between atoms: _6  and  _7
REMARK    5  A    between atoms: _7  and  _8
REMARK    6  A    between atoms: _10  and  _12
REMARK    7  A    between atoms: _12  and  _13
REMARK    8  A    between atoms: _12  and  _15
REMARK    9  A    between atoms: _15  and  _16
REMARK   10  A    between atoms: _16  and  _17
REMARK   11  A    between atoms: _17  and  _18
REMARK   12  A    between atoms: _27  and  _29
REMARK   13  A    between atoms: _29  and  _30
REMARK   14  A    between atoms: _29  and  _32
REMARK   15  A    between atoms: _32  and  _33
REMARK   16  A    between atoms: _38  and  _39
REMARK   17  A    between atoms: _41  and  _43
REMARK   18  A    between atoms: _43  and  _44
REMARK   19  A    between atoms: _43  and  _46
REMARK   20  A    between atoms: _46  and  _47
REMARK   21  A    between atoms: _53  and  _55
REMARK   22  A    between atoms: _55  and  _56
REMARK   23  A    between atoms: _55  and  _58
REMARK   24  A    between atoms: _58  and  _59
REMARK   25  A    between atoms: _64  and  _65
REMARK   26  A    between atoms: _67  and  _69
REMARK   27  A    between atoms: _69  and  _70
REMARK   28  A    between atoms: _69  and  _72
REMARK   29  A    between atoms: _72  and  _73
REMARK   30  A    between atoms: _79  and  _81
REMARK   31  A    between atoms: _81  and  _82
REMARK   32  A    between atoms: _85  and  _87
REMARK   33  A    between atoms: _87  and  _88
REMARK   34  A    between atoms: _87  and  _90
REMARK   35  A    between atoms: _93  and  _95
REMARK   36  A    between atoms: _95  and  _96
REMARK   37  A    between atoms: _98  and  _100
REMARK   38  A    between atoms: _100  and  _101
REMARK   39  A    between atoms: _100  and  _103
REMARK   40  A    between atoms: _106  and  _108
REMARK   41  A    between atoms: _108  and  _109
REMARK   42  A    between atoms: _108  and  _111
REMARK   43  A    between atoms: _111  and  _112
REMARK   44  A    between atoms: _118  and  _120
REMARK   45  A    between atoms: _120  and  _121
REMARK   46  A    between atoms: _120  and  _123
REMARK   47  A    between atoms: _126  and  _128
REMARK   48  A    between atoms: _128  and  _129
REMARK   49  A    between atoms: _128  and  _131
REMARK   50  A    between atoms: _131  and  _132
REMARK   51  A    between atoms: _138  and  _140
REMARK   52  A    between atoms: _140  and  _141
REMARK   53  A    between atoms: _140  and  _143
REMARK   54  A    between atoms: _143  and  _144
REMARK   55  A    between atoms: _144  and  _145
REMARK   56  A    between atoms: _147  and  _149
REMARK   57  A    between atoms: _149  and  _150
REMARK   58  A    between atoms: _149  and  _152
REMARK   59  A    between atoms: _152  and  _153
REMARK   60  A    between atoms: _156  and  _158
REMARK   61  A    between atoms: _158  and  _159
REMARK   62  A    between atoms: _158  and  _161
REMARK   63  A    between atoms: _161  and  _162
REMARK   64  A    between atoms: _162  and  _163
REMARK   65  A    between atoms: _166  and  _168
REMARK   66  A    between atoms: _168  and  _169
REMARK   67  A    between atoms: _168  and  _171
REMARK   68  A    between atoms: _171  and  _172
REMARK   69  A    between atoms: _172  and  _173
REMARK   70  A    between atoms: _176  and  _178
REMARK   71  A    between atoms: _178  and  _179
REMARK   72  A    between atoms: _178  and  _181
REMARK   73  A    between atoms: _181  and  _182
REMARK   74  A    between atoms: _187  and  _188
REMARK   75  A    between atoms: _190  and  _192
REMARK   76  A    between atoms: _192  and  _193
REMARK   77  A    between atoms: _192  and  _195
REMARK   78  A    between atoms: _195  and  _196
REMARK   79  A    between atoms: _206  and  _208
REMARK   80  A    between atoms: _208  and  _209
REMARK   81  A    between atoms: _208  and  _211
REMARK   82  A    between atoms: _211  and  _212
REMARK   83  A    between atoms: _215  and  _217
REMARK   84  A    between atoms: _217  and  _218
REMARK   85  A    between atoms: _217  and  _220
REMARK   86  A    between atoms: _220  and  _221
REMARK   87  A    between atoms: _221  and  _222
REMARK   88  A    between atoms: _222  and  _223
REMARK   89  A    between atoms: _232  and  _234
REMARK   90  A    between atoms: _234  and  _235
REMARK   91  A    between atoms: _234  and  _237
REMARK   92  A    between atoms: _237  and  _238
REMARK   93  A    between atoms: _238  and  _239
REMARK   94  A    between atoms: _242  and  _244
REMARK   95  A    between atoms: _244  and  _245
REMARK   96  A    between atoms: _244  and  _247
REMARK   97  A    between atoms: _247  and  _248
REMARK   98  A    between atoms: _251  and  _253
REMARK   99  A    between atoms: _253  and  _254
REMARK  100  A    between atoms: _253  and  _256
REMARK  101  A    between atoms: _256  and  _257
REMARK  102  A    between atoms: _257  and  _258
REMARK  103  A    between atoms: _263  and  _265
REMARK  104  A    between atoms: _265  and  _266
REMARK  105  A    between atoms: _265  and  _268
REMARK  106  A    between atoms: _268  and  _269
REMARK  107  A    between atoms: _272  and  _274
REMARK  108  A    between atoms: _274  and  _275
REMARK  109  A    between atoms: _274  and  _277
REMARK  110  A    between atoms: _277  and  _278
REMARK  111  A    between atoms: _280  and  _282
REMARK  112  A    between atoms: _282  and  _283
REMARK  113  A    between atoms: _282  and  _285
REMARK  114  A    between atoms: _285  and  _286
REMARK  115  A    between atoms: _286  and  _287
REMARK  116  A    between atoms: _287  and  _288
REMARK  117  A    between atoms: _288  and  _289
REMARK  118  A    between atoms: _293  and  _295
REMARK  119  A    between atoms: _295  and  _296
REMARK  120  A    between atoms: _295  and  _298
REMARK  121  A    between atoms: _298  and  _299
REMARK  122  A    between atoms: _302  and  _304
REMARK  123  A    between atoms: _304  and  _305
REMARK  124  A    between atoms: _304  and  _307
REMARK  125  A    between atoms: _307  and  _308
REMARK  126  A    between atoms: _313  and  _315
REMARK  127  A    between atoms: _315  and  _316
REMARK  128  A    between atoms: _315  and  _318
REMARK  129  A    between atoms: _318  and  _319
REMARK  130  A    between atoms: _319  and  _320
REMARK  131  A    between atoms: _325  and  _327
REMARK  132  A    between atoms: _327  and  _328
REMARK  133  A    between atoms: _327  and  _330
REMARK  134  A    between atoms: _330  and  _331
REMARK  135  A    between atoms: _334  and  _336
REMARK  136  A    between atoms: _336  and  _337
REMARK  137  A    between atoms: _336  and  _339
REMARK  138  A    between atoms: _339  and  _340
REMARK  139  A    between atoms: _345  and  _346
REMARK  140  A    between atoms: _348  and  _350
REMARK  141  A    between atoms: _350  and  _351
REMARK  142  A    between atoms: _350  and  _353
REMARK  143  A    between atoms: _353  and  _354
REMARK  144  A    between atoms: _354  and  _355
REMARK  145  A    between atoms: _355  and  _356
REMARK  146  A    between atoms: _365  and  _367
REMARK  147  A    between atoms: _367  and  _368
REMARK  148  A    between atoms: _367  and  _370
REMARK  149  A    between atoms: _370  and  _371
REMARK  150  A    between atoms: _371  and  _372
REMARK  151  A    between atoms: _375  and  _377
REMARK  152  A    between atoms: _377  and  _378
REMARK  153  A    between atoms: _377  and  _380
REMARK  154  A    between atoms: _380  and  _381
REMARK  155  A    between atoms: _383  and  _385
REMARK  156  A    between atoms: _385  and  _386
REMARK  157  A    between atoms: _385  and  _388
REMARK  158  A    between atoms: _388  and  _389
REMARK  159  A    between atoms: _392  and  _394
REMARK  160  A    between atoms: _394  and  _395
REMARK  161  A    between atoms: _394  and  _397
REMARK  162  A    between atoms: _397  and  _398
REMARK  163  A    between atoms: _398  and  _399
REMARK  164  A    between atoms: _399  and  _400
REMARK  165  A    between atoms: _409  and  _411
REMARK  166  A    between atoms: _411  and  _412
REMARK  167  A    between atoms: _411  and  _414
REMARK  168  A    between atoms: _414  and  _415
REMARK  169  A    between atoms: _420  and  _422
REMARK  170  A    between atoms: _422  and  _423
REMARK  171  A    between atoms: _422  and  _425
REMARK  172  A    between atoms: _425  and  _426
REMARK  173  A    between atoms: _429  and  _431
REMARK  174  A    between atoms: _431  and  _432
REMARK  175  A    between atoms: _431  and  _434
REMARK  176  A    between atoms: _434  and  _435
REMARK  177  A    between atoms: _440  and  _441
REMARK  178  A    between atoms: _443  and  _445
REMARK  179  A    between atoms: _445  and  _446
REMARK  180  A    between atoms: _445  and  _448
REMARK  181  A    between atoms: _448  and  _449
REMARK  182  A    between atoms: _452  and  _454
REMARK  183  A    between atoms: _454  and  _455
REMARK  184  A    between atoms: _454  and  _457
REMARK  185  A    between atoms: _457  and  _458
REMARK  186  A    between atoms: _458  and  _459
REMARK  187  A    between atoms: _464  and  _466
REMARK  188  A    between atoms: _466  and  _467
REMARK  189  A    between atoms: _466  and  _469
REMARK  190  A    between atoms: _469  and  _470
REMARK  191  A    between atoms: _470  and  _471
REMARK  192  A    between atoms: _471  and  _472
REMARK  193  A    between atoms: _481  and  _483
REMARK  194  A    between atoms: _483  and  _484
REMARK  195  A    between atoms: _483  and  _486
REMARK  196  A    between atoms: _486  and  _487
REMARK  197  A    between atoms: _487  and  _488
REMARK  198  A    between atoms: _490  and  _492
REMARK  199  A    between atoms: _492  and  _493
REMARK  200  A    between atoms: _492  and  _495
REMARK  201  A    between atoms: _495  and  _496
REMARK  202  A    between atoms: _501  and  _502
REMARK  203  A    between atoms: _504  and  _506
REMARK  204  A    between atoms: _506  and  _507
REMARK  205  A    between atoms: _509  and  _511
REMARK  206  A    between atoms: _511  and  _512
REMARK  207  A    between atoms: _511  and  _514
REMARK  208  A    between atoms: _514  and  _515
REMARK  209  A    between atoms: _515  and  _869
REMARK  210  A    between atoms: _516  and  _518
REMARK  211  A    between atoms: _518  and  _519
REMARK  212  A    between atoms: _518  and  _521
REMARK  213  A    between atoms: _521  and  _522
REMARK  214  A    between atoms: _525  and  _527
REMARK  215  A    between atoms: _527  and  _528
REMARK  216  A    between atoms: _527  and  _530
REMARK  217  A    between atoms: _530  and  _531
REMARK  218  A    between atoms: _531  and  _532
REMARK  219  A    between atoms: _537  and  _539
REMARK  220  A    between atoms: _539  and  _540
REMARK  221  A    between atoms: _539  and  _542
REMARK  222  A    between atoms: _542  and  _543
REMARK  223  A    between atoms: _545  and  _547
REMARK  224  A    between atoms: _547  and  _548
REMARK  225  A    between atoms: _551  and  _553
REMARK  226  A    between atoms: _553  and  _554
REMARK  227  A    between atoms: _553  and  _556
REMARK  228  A    between atoms: _556  and  _557
REMARK  229  A    between atoms: _562  and  _563
REMARK  230  A    between atoms: _565  and  _567
REMARK  231  A    between atoms: _567  and  _568
REMARK  232  A    between atoms: _567  and  _570
REMARK  233  A    between atoms: _570  and  _571
REMARK  234  A    between atoms: _576  and  _577
REMARK  235  A    between atoms: _579  and  _581
REMARK  236  A    between atoms: _581  and  _582
REMARK  237  A    between atoms: _581  and  _584
REMARK  238  A    between atoms: _584  and  _585
REMARK  239  A    between atoms: _588  and  _590
REMARK  240  A    between atoms: _590  and  _591
REMARK  241  A    between atoms: _594  and  _596
REMARK  242  A    between atoms: _596  and  _597
REMARK  243  A    between atoms: _596  and  _599
REMARK  244  A    between atoms: _599  and  _600
REMARK  245  A    between atoms: _610  and  _612
REMARK  246  A    between atoms: _612  and  _613
REMARK  247  A    between atoms: _616  and  _618
REMARK  248  A    between atoms: _618  and  _619
REMARK  249  A    between atoms: _622  and  _624
REMARK  250  A    between atoms: _624  and  _625
REMARK  251  A    between atoms: _624  and  _627
REMARK  252  A    between atoms: _627  and  _628
REMARK  253  A    between atoms: _628  and  _629
REMARK  254  A    between atoms: _634  and  _636
REMARK  255  A    between atoms: _636  and  _637
REMARK  256  A    between atoms: _636  and  _639
REMARK  257  A    between atoms: _639  and  _640
REMARK  258  A    between atoms: _643  and  _645
REMARK  259  A    between atoms: _645  and  _646
REMARK  260  A    between atoms: _645  and  _648
REMARK  261  A    between atoms: _648  and  _649
REMARK  262  A    between atoms: _652  and  _654
REMARK  263  A    between atoms: _654  and  _655
REMARK  264  A    between atoms: _654  and  _657
REMARK  265  A    between atoms: _657  and  _658
REMARK  266  A    between atoms: _658  and  _659
REMARK  267  A    between atoms: _664  and  _666
REMARK  268  A    between atoms: _666  and  _667
REMARK  269  A    between atoms: _666  and  _669
REMARK  270  A    between atoms: _669  and  _670
REMARK  271  A    between atoms: _670  and  _671
REMARK  272  A    between atoms: _671  and  _672
REMARK  273  A    between atoms: _681  and  _683
REMARK  274  A    between atoms: _683  and  _684
REMARK  275  A    between atoms: _683  and  _686
REMARK  276  A    between atoms: _686  and  _687
REMARK  277  A    between atoms: _687  and  _688
REMARK  278  A    between atoms: _688  and  _689
REMARK  279  A    between atoms: _689  and  _690
REMARK  280  A    between atoms: _694  and  _696
REMARK  281  A    between atoms: _696  and  _697
REMARK  282  A    between atoms: _696  and  _699
REMARK  283  A    between atoms: _699  and  _700
REMARK  284  A    between atoms: _710  and  _712
REMARK  285  A    between atoms: _712  and  _713
REMARK  286  A    between atoms: _712  and  _715
REMARK  287  A    between atoms: _715  and  _716
REMARK  288  A    between atoms: _716  and  _717
REMARK  289  A    between atoms: _720  and  _722
REMARK  290  A    between atoms: _722  and  _723
REMARK  291  A    between atoms: _726  and  _728
REMARK  292  A    between atoms: _728  and  _729
REMARK  293  A    between atoms: _732  and  _734
REMARK  294  A    between atoms: _734  and  _735
REMARK  295  A    between atoms: _734  and  _737
REMARK  296  A    between atoms: _737  and  _738
REMARK  297  A    between atoms: _738  and  _739
REMARK  298  A    between atoms: _739  and  _740
REMARK  299  A    between atoms: _749  and  _751
REMARK  300  A    between atoms: _751  and  _752
REMARK  301  A    between atoms: _751  and  _754
REMARK  302  A    between atoms: _754  and  _755
REMARK  303  A    between atoms: _755  and  _756
REMARK  304  A    between atoms: _759  and  _761
REMARK  305  A    between atoms: _761  and  _762
REMARK  306  A    between atoms: _765  and  _767
REMARK  307  A    between atoms: _767  and  _768
REMARK  308  A    between atoms: _767  and  _770
REMARK  309  A    between atoms: _770  and  _771
REMARK  310  A    between atoms: _771  and  _772
REMARK  311  A    between atoms: _775  and  _777
REMARK  312  A    between atoms: _777  and  _778
REMARK  313  A    between atoms: _777  and  _780
REMARK  314  A    between atoms: _780  and  _781
REMARK  315  A    between atoms: _781  and  _782
REMARK  316  A    between atoms: _787  and  _789
REMARK  317  A    between atoms: _789  and  _790
REMARK  318  A    between atoms: _789  and  _792
REMARK  319  A    between atoms: _792  and  _793
REMARK  320  A    between atoms: _803  and  _805
REMARK  321  A    between atoms: _805  and  _806
REMARK  322  A    between atoms: _805  and  _808
REMARK  323  A    between atoms: _808  and  _809
REMARK  324  A    between atoms: _809  and  _810
REMARK  325  A    between atoms: _810  and  _811
REMARK  326  A    between atoms: _820  and  _822
REMARK  327  A    between atoms: _822  and  _823
REMARK  328  A    between atoms: _826  and  _828
REMARK  329  A    between atoms: _828  and  _829
REMARK  330  A    between atoms: _828  and  _831
REMARK  331  A    between atoms: _831  and  _832
REMARK  332  A    between atoms: _837  and  _838
REMARK  333  A    between atoms: _840  and  _842
REMARK  334  A    between atoms: _842  and  _843
REMARK  335  A    between atoms: _842  and  _845
REMARK  336  A    between atoms: _845  and  _846
REMARK  337  A    between atoms: _849  and  _851
REMARK  338  A    between atoms: _851  and  _852
REMARK  339  A    between atoms: _854  and  _856
REMARK  340  A    between atoms: _856  and  _857
REMARK  341  A    between atoms: _856  and  _859
REMARK  342  A    between atoms: _859  and  _860
REMARK  343  A    between atoms: _863  and  _865
REMARK  344  A    between atoms: _865  and  _866
REMARK  345  A    between atoms: _865  and  _868
REMARK  346  A    between atoms: _868  and  _869
REMARK  347  A    between atoms: _870  and  _872
REMARK  348  A    between atoms: _872  and  _873
REMARK  349  A    between atoms: _872  and  _875
REMARK  350  A    between atoms: _878  and  _880
REMARK  351  A    between atoms: _880  and  _881
REMARK  352  A    between atoms: _880  and  _883
REMARK  353  A    between atoms: _883  and  _884
REMARK  354  A    between atoms: _884  and  _885
REMARK  355  A    between atoms: _888  and  _890
REMARK  356  A    between atoms: _890  and  _891
REMARK  357  A    between atoms: _890  and  _893
REMARK  358  A    between atoms: _893  and  _894
REMARK  359  A    between atoms: _904  and  _906
REMARK  360  A    between atoms: _906  and  _907
REMARK  361  A    between atoms: _906  and  _909
REMARK  362  A    between atoms: _909  and  _910
REMARK  363  A    between atoms: _913  and  _915
REMARK  364  A    between atoms: _915  and  _916
REMARK  365  A    between atoms: _915  and  _918
REMARK  366  A    between atoms: _918  and  _919
REMARK  367  A    between atoms: _919  and  _920
REMARK  368  A    between atoms: _920  and  _921
REMARK  369  A    between atoms: _930  and  _932
REMARK  370  A    between atoms: _932  and  _933
REMARK  371  A    between atoms: _932  and  _935
REMARK  372  A    between atoms: _935  and  _936
REMARK  373  A    between atoms: _941  and  _942
REMARK  374  A    between atoms: _944  and  _946
REMARK  375  A    between atoms: _946  and  _947
REMARK  376  A    between atoms: _946  and  _949
REMARK  377  A    between atoms: _949  and  _950
REMARK                            x       y       z     vdW  Elec       q    Type
REMARK                         _______ _______ _______ _____ _____    ______ ____
ROOT
ATOM      1  O   HOH     1      40.232  23.157  36.313  0.00  0.00    +0.000 OA
ENDROOT
TORSDOF 0
REMARK  Name = ../refined-set-2016/1xr9/1xr9_pocket.pdb
REMARK  377 active torsions:
REMARK  status: ('A' for Active; 'I' for Inactive)
REMARK    1  A    between atoms: _1  and  _3
REMARK    2  A    between atoms: _3  and  _4
REMARK    3  A    between atoms: _3  and  _6
REMARK    4  A    between atoms: _6  and  _7
REMARK    5  A    between atoms: _7  and  _8
REMARK    6  A    between atoms: _10  and  _12
REMARK    7  A    between atoms: _12  and  _13
REMARK    8  A    between atoms: _12  and  _15
REMARK    9  A    between atoms: _15  and  _16
REMARK   10  A    between atoms: _16  and  _17
REMARK   11  A    between atoms: _17  and  _18
REMARK   12  A    between atoms: _27  and  _29
REMARK   13  A    between atoms: _29  and  _30
REMARK   14  A    between atoms: _29  and  _32
REMARK   15  A    between atoms: _32  and  _33
REMARK   16  A    between atoms: _38  and  _39
REMARK   17  A    between atoms: _41  and  _43
REMARK   18  A    between atoms: _43  and  _44
REMARK   19  A    between atoms: _43  and  _46
REMARK   20  A    between atoms: _46  and  _47
REMARK   21  A    between atoms: _53  and  _55
REMARK   22  A    between atoms: _55  and  _56
REMARK   23  A    between atoms: _55  and  _58
REMARK   24  A    between atoms: _58  and  _59
REMARK   25  A    between atoms: _64  and  _65
REMARK   26  A    between atoms: _67  and  _69
REMARK   27  A    between atoms: _69  and  _70
REMARK   28  A    between atoms: _69  and  _72
REMARK   29  A    between atoms: _72  and  _73
REMARK   30  A    between atoms: _79  and  _81
REMARK   31  A    between atoms: _81  and  _82
REMARK   32  A    between atoms: _85  and  _87
REMARK   33  A    between atoms: _87  and  _88
REMARK   34  A    between atoms: _87  and  _90
REMARK   35  A    between atoms: _93  and  _95
REMARK   36  A    between atoms: _95  and  _96
REMARK   37  A    between atoms: _98  and  _100
REMARK   38  A    between atoms: _100  and  _101
REMARK   39  A    between atoms: _100  and  _103
REMARK   40  A    between atoms: _106  and  _108
REMARK   41  A    between atoms: _108  and  _109
REMARK   42  A    between atoms: _108  and  _111
REMARK   43  A    between atoms: _111  and  _112
REMARK   44  A    between atoms: _118  and  _120
REMARK   45  A    between atoms: _120  and  _121
REMARK   46  A    between atoms: _120  and  _123
REMARK   47  A    between atoms: _126  and  _128
REMARK   48  A    between atoms: _128  and  _129
REMARK   49  A    between atoms: _128  and  _131
REMARK   50  A    between atoms: _131  and  _132
REMARK   51  A    between atoms: _138  and  _140
REMARK   52  A    between atoms: _140  and  _141
REMARK   53  A    between atoms: _140  and  _143
REMARK   54  A    between atoms: _143  and  _144
REMARK   55  A    between atoms: _144  and  _145
REMARK   56  A    between atoms: _147  and  _149
REMARK   57  A    between atoms: _149  and  _150
REMARK   58  A    between atoms: _149  and  _152
REMARK   59  A    between atoms: _152  and  _153
REMARK   60  A    between atoms: _156  and  _158
REMARK   61  A    between atoms: _158  and  _159
REMARK   62  A    between atoms: _158  and  _161
REMARK   63  A    between atoms: _161  and  _162
REMARK   64  A    between atoms: _162  and  _163
REMARK   65  A    between atoms: _166  and  _168
REMARK   66  A    between atoms: _168  and  _169
REMARK   67  A    between atoms: _168  and  _171
REMARK   68  A    between atoms: _171  and  _172
REMARK   69  A    between atoms: _172  and  _173
REMARK   70  A    between atoms: _176  and  _178
REMARK   71  A    between atoms: _178  and  _179
REMARK   72  A    between atoms: _178  and  _181
REMARK   73  A    between atoms: _181  and  _182
REMARK   74  A    between atoms: _187  and  _188
REMARK   75  A    between atoms: _190  and  _192
REMARK   76  A    between atoms: _192  and  _193
REMARK   77  A    between atoms: _192  and  _195
REMARK   78  A    between atoms: _195  and  _196
REMARK   79  A    between atoms: _206  and  _208
REMARK   80  A    between atoms: _208  and  _209
REMARK   81  A    between atoms: _208  and  _211
REMARK   82  A    between atoms: _211  and  _212
REMARK   83  A    between atoms: _215  and  _217
REMARK   84  A    between atoms: _217  and  _218
REMARK   85  A    between atoms: _217  and  _220
REMARK   86  A    between atoms: _220  and  _221
REMARK   87  A    between atoms: _221  and  _222
REMARK   88  A    between atoms: _222  and  _223
REMARK   89  A    between atoms: _232  and  _234
REMARK   90  A    between atoms: _234  and  _235
REMARK   91  A    between atoms: _234  and  _237
REMARK   92  A    between atoms: _237  and  _238
REMARK   93  A    between atoms: _238  and  _239
REMARK   94  A    between atoms: _242  and  _244
REMARK   95  A    between atoms: _244  and  _245
REMARK   96  A    between atoms: _244  and  _247
REMARK   97  A    between atoms: _247  and  _248
REMARK   98  A    between atoms: _251  and  _253
REMARK   99  A    between atoms: _253  and  _254
REMARK  100  A    between atoms: _253  and  _256
REMARK  101  A    between atoms: _256  and  _257
REMARK  102  A    between atoms: _257  and  _258
REMARK  103  A    between atoms: _263  and  _265
REMARK  104  A    between atoms: _265  and  _266
REMARK  105  A    between atoms: _265  and  _268
REMARK  106  A    between atoms: _268  and  _269
REMARK  107  A    between atoms: _272  and  _274
REMARK  108  A    between atoms: _274  and  _275
REMARK  109  A    between atoms: _274  and  _277
REMARK  110  A    between atoms: _277  and  _278
REMARK  111  A    between atoms: _280  and  _282
REMARK  112  A    between atoms: _282  and  _283
REMARK  113  A    between atoms: _282  and  _285
REMARK  114  A    between atoms: _285  and  _286
REMARK  115  A    between atoms: _286  and  _287
REMARK  116  A    between atoms: _287  and  _288
REMARK  117  A    between atoms: _288  and  _289
REMARK  118  A    between atoms: _293  and  _295
REMARK  119  A    between atoms: _295  and  _296
REMARK  120  A    between atoms: _295  and  _298
REMARK  121  A    between atoms: _298  and  _299
REMARK  122  A    between atoms: _302  and  _304
REMARK  123  A    between atoms: _304  and  _305
REMARK  124  A    between atoms: _304  and  _307
REMARK  125  A    between atoms: _307  and  _308
REMARK  126  A    between atoms: _313  and  _315
REMARK  127  A    between atoms: _315  and  _316
REMARK  128  A    between atoms: _315  and  _318
REMARK  129  A    between atoms: _318  and  _319
REMARK  130  A    between atoms: _319  and  _320
REMARK  131  A    between atoms: _325  and  _327
REMARK  132  A    between atoms: _327  and  _328
REMARK  133  A    between atoms: _327  and  _330
REMARK  134  A    between atoms: _330  and  _331
REMARK  135  A    between atoms: _334  and  _336
REMARK  136  A    between atoms: _336  and  _337
REMARK  137  A    between atoms: _336  and  _339
REMARK  138  A    between atoms: _339  and  _340
REMARK  139  A    between atoms: _345  and  _346
REMARK  140  A    between atoms: _348  and  _350
REMARK  141  A    between atoms: _350  and  _351
REMARK  142  A    between atoms: _350  and  _353
REMARK  143  A    between atoms: _353  and  _354
REMARK  144  A    between atoms: _354  and  _355
REMARK  145  A    between atoms: _355  and  _356
REMARK  146  A    between atoms: _365  and  _367
REMARK  147  A    between atoms: _367  and  _368
REMARK  148  A    between atoms: _367  and  _370
REMARK  149  A    between atoms: _370  and  _371
REMARK  150  A    between atoms: _371  and  _372
REMARK  151  A    between atoms: _375  and  _377
REMARK  152  A    between atoms: _377  and  _378
REMARK  153  A    between atoms: _377  and  _380
REMARK  154  A    between atoms: _380  and  _381
REMARK  155  A    between atoms: _383  and  _385
REMARK  156  A    between atoms: _385  and  _386
REMARK  157  A    between atoms: _385  and  _388
REMARK  158  A    between atoms: _388  and  _389
REMARK  159  A    between atoms: _392  and  _394
REMARK  160  A    between atoms: _394  and  _395
REMARK  161  A    between atoms: _394  and  _397
REMARK  162  A    between atoms: _397  and  _398
REMARK  163  A    between atoms: _398  and  _399
REMARK  164  A    between atoms: _399  and  _400
REMARK  165  A    between atoms: _409  and  _411
REMARK  166  A    between atoms: _411  and  _412
REMARK  167  A    between atoms: _411  and  _414
REMARK  168  A    between atoms: _414  and  _415
REMARK  169  A    between atoms: _420  and  _422
REMARK  170  A    between atoms: _422  and  _423
REMARK  171  A    between atoms: _422  and  _425
REMARK  172  A    between atoms: _425  and  _426
REMARK  173  A    between atoms: _429  and  _431
REMARK  174  A    between atoms: _431  and  _432
REMARK  175  A    between atoms: _431  and  _434
REMARK  176  A    between atoms: _434  and  _435
REMARK  177  A    between atoms: _440  and  _441
REMARK  178  A    between atoms: _443  and  _445
REMARK  179  A    between atoms: _445  and  _446
REMARK  180  A    between atoms: _445  and  _448
REMARK  181  A    between atoms: _448  and  _449
REMARK  182  A    between atoms: _452  and  _454
REMARK  183  A    between atoms: _454  and  _455
REMARK  184  A    between atoms: _454  and  _457
REMARK  185  A    between atoms: _457  and  _458
REMARK  186  A    between atoms: _458  and  _459
REMARK  187  A    between atoms: _464  and  _466
REMARK  188  A    between atoms: _466  and  _467
REMARK  189  A    between atoms: _466  and  _469
REMARK  190  A    between atoms: _469  and  _470
REMARK  191  A    between atoms: _470  and  _471
REMARK  192  A    between atoms: _471  and  _472
REMARK  193  A    between atoms: _481  and  _483
REMARK  194  A    between atoms: _483  and  _484
REMARK  195  A    between atoms: _483  and  _486
REMARK  196  A    between atoms: _486  and  _487
REMARK  197  A    between atoms: _487  and  _488
REMARK  198  A    between atoms: _490  and  _492
REMARK  199  A    between atoms: _492  and  _493
REMARK  200  A    between atoms: _492  and  _495
REMARK  201  A    between atoms: _495  and  _496
REMARK  202  A    between atoms: _501  and  _502
REMARK  203  A    between atoms: _504  and  _506
REMARK  204  A    between atoms: _506  and  _507
REMARK  205  A    between atoms: _509  and  _511
REMARK  206  A    between atoms: _511  and  _512
REMARK  207  A    between atoms: _511  and  _514
REMARK  208  A    between atoms: _514  and  _515
REMARK  209  A    between atoms: _515  and  _869
REMARK  210  A    between atoms: _516  and  _518
REMARK  211  A    between atoms: _518  and  _519
REMARK  212  A    between atoms: _518  and  _521
REMARK  213  A    between atoms: _521  and  _522
REMARK  214  A    between atoms: _525  and  _527
REMARK  215  A    between atoms: _527  and  _528
REMARK  216  A    between atoms: _527  and  _530
REMARK  217  A    between atoms: _530  and  _531
REMARK  218  A    between atoms: _531  and  _532
REMARK  219  A    between atoms: _537  and  _539
REMARK  220  A    between atoms: _539  and  _540
REMARK  221  A    between atoms: _539  and  _542
REMARK  222  A    between atoms: _542  and  _543
REMARK  223  A    between atoms: _545  and  _547
REMARK  224  A    between atoms: _547  and  _548
REMARK  225  A    between atoms: _551  and  _553
REMARK  226  A    between atoms: _553  and  _554
REMARK  227  A    between atoms: _553  and  _556
REMARK  228  A    between atoms: _556  and  _557
REMARK  229  A    between atoms: _562  and  _563
REMARK  230  A    between atoms: _565  and  _567
REMARK  231  A    between atoms: _567  and  _568
REMARK  232  A    between atoms: _567  and  _570
REMARK  233  A    between atoms: _570  and  _571
REMARK  234  A    between atoms: _576  and  _577
REMARK  235  A    between atoms: _579  and  _581
REMARK  236  A    between atoms: _581  and  _582
REMARK  237  A    between atoms: _581  and  _584
REMARK  238  A    between atoms: _584  and  _585
REMARK  239  A    between atoms: _588  and  _590
REMARK  240  A    between atoms: _590  and  _591
REMARK  241  A    between atoms: _594  and  _596
REMARK  242  A    between atoms: _596  and  _597
REMARK  243  A    between atoms: _596  and  _599
REMARK  244  A    between atoms: _599  and  _600
REMARK  245  A    between atoms: _610  and  _612
REMARK  246  A    between atoms: _612  and  _613
REMARK  247  A    between atoms: _616  and  _618
REMARK  248  A    between atoms: _618  and  _619
REMARK  249  A    between atoms: _622  and  _624
REMARK  250  A    between atoms: _624  and  _625
REMARK  251  A    between atoms: _624  and  _627
REMARK  252  A    between atoms: _627  and  _628
REMARK  253  A    between atoms: _628  and  _629
REMARK  254  A    between atoms: _634  and  _636
REMARK  255  A    between atoms: _636  and  _637
REMARK  256  A    between atoms: _636  and  _639
REMARK  257  A    between atoms: _639  and  _640
REMARK  258  A    between atoms: _643  and  _645
REMARK  259  A    between atoms: _645  and  _646
REMARK  260  A    between atoms: _645  and  _648
REMARK  261  A    between atoms: _648  and  _649
REMARK  262  A    between atoms: _652  and  _654
REMARK  263  A    between atoms: _654  and  _655
REMARK  264  A    between atoms: _654  and  _657
REMARK  265  A    between atoms: _657  and  _658
REMARK  266  A    between atoms: _658  and  _659
REMARK  267  A    between atoms: _664  and  _666
REMARK  268  A    between atoms: _666  and  _667
REMARK  269  A    between atoms: _666  and  _669
REMARK  270  A    between atoms: _669  and  _670
REMARK  271  A    between atoms: _670  and  _671
REMARK  272  A    between atoms: _671  and  _672
REMARK  273  A    between atoms: _681  and  _683
REMARK  274  A    between atoms: _683  and  _684
REMARK  275  A    between atoms: _683  and  _686
REMARK  276  A    between atoms: _686  and  _687
REMARK  277  A    between atoms: _687  and  _688
REMARK  278  A    between atoms: _688  and  _689
REMARK  279  A    between atoms: _689  and  _690
REMARK  280  A    between atoms: _694  and  _696
REMARK  281  A    between atoms: _696  and  _697
REMARK  282  A    between atoms: _696  and  _699
REMARK  283  A    between atoms: _699  and  _700
REMARK  284  A    between atoms: _710  and  _712
REMARK  285  A    between atoms: _712  and  _713
REMARK  286  A    between atoms: _712  and  _715
REMARK  287  A    between atoms: _715  and  _716
REMARK  288  A    between atoms: _716  and  _717
REMARK  289  A    between atoms: _720  and  _722
REMARK  290  A    between atoms: _722  and  _723
REMARK  291  A    between atoms: _726  and  _728
REMARK  292  A    between atoms: _728  and  _729
REMARK  293  A    between atoms: _732  and  _734
REMARK  294  A    between atoms: _734  and  _735
REMARK  295  A    between atoms: _734  and  _737
REMARK  296  A    between atoms: _737  and  _738
REMARK  297  A    between atoms: _738  and  _739
REMARK  298  A    between atoms: _739  and  _740
REMARK  299  A    between atoms: _749  and  _751
REMARK  300  A    between atoms: _751  and  _752
REMARK  301  A    between atoms: _751  and  _754
REMARK  302  A    between atoms: _754  and  _755
REMARK  303  A    between atoms: _755  and  _756
REMARK  304  A    between atoms: _759  and  _761
REMARK  305  A    between atoms: _761  and  _762
REMARK  306  A    between atoms: _765  and  _767
REMARK  307  A    between atoms: _767  and  _768
REMARK  308  A    between atoms: _767  and  _770
REMARK  309  A    between atoms: _770  and  _771
REMARK  310  A    between atoms: _771  and  _772
REMARK  311  A    between atoms: _775  and  _777
REMARK  312  A    between atoms: _777  and  _778
REMARK  313  A    between atoms: _777  and  _780
REMARK  314  A    between atoms: _780  and  _781
REMARK  315  A    between atoms: _781  and  _782
REMARK  316  A    between atoms: _787  and  _789
REMARK  317  A    between atoms: _789  and  _790
REMARK  318  A    between atoms: _789  and  _792
REMARK  319  A    between atoms: _792  and  _793
REMARK  320  A    between atoms: _803  and  _805
REMARK  321  A    between atoms: _805  and  _806
REMARK  322  A    between atoms: _805  and  _808
REMARK  323  A    between atoms: _808  and  _809
REMARK  324  A    between atoms: _809  and  _810
REMARK  325  A    between atoms: _810  and  _811
REMARK  326  A    between atoms: _820  and  _822
REMARK  327  A    between atoms: _822  and  _823
REMARK  328  A    between atoms: _826  and  _828
REMARK  329  A    between atoms: _828  and  _829
REMARK  330  A    between atoms: _828  and  _831
REMARK  331  A    between atoms: _831  and  _832
REMARK  332  A    between atoms: _837  and  _838
REMARK  333  A    between atoms: _840  and  _842
REMARK  334  A    between atoms: _842  and  _843
REMARK  335  A    between atoms: _842  and  _845
REMARK  336  A    between atoms: _845  and  _846
REMARK  337  A    between atoms: _849  and  _851
REMARK  338  A    between atoms: _851  and  _852
REMARK  339  A    between atoms: _854  and  _856
REMARK  340  A    between atoms: _856  and  _857
REMARK  341  A    between atoms: _856  and  _859
REMARK  342  A    between atoms: _859  and  _860
REMARK  343  A    between atoms: _863  and  _865
REMARK  344  A    between atoms: _865  and  _866
REMARK  345  A    between atoms: _865  and  _868
REMARK  346  A    between atoms: _868  and  _869
REMARK  347  A    between atoms: _870  and  _872
REMARK  348  A    between atoms: _872  and  _873
REMARK  349  A    between atoms: _872  and  _875
REMARK  350  A    between atoms: _878  and  _880
REMARK  351  A    between atoms: _880  and  _881
REMARK  352  A    between atoms: _880  and  _883
REMARK  353  A    between atoms: _883  and  _884
REMARK  354  A    between atoms: _884  and  _885
REMARK  355  A    between atoms: _888  and  _890
REMARK  356  A    between atoms: _890  and  _891
REMARK  357  A    between atoms: _890  and  _893
REMARK  358  A    between atoms: _893  and  _894
REMARK  359  A    between atoms: _904  and  _906
REMARK  360  A    between atoms: _906  and  _907
REMARK  361  A    between atoms: _906  and  _909
REMARK  362  A    between atoms: _909  and  _910
REMARK  363  A    between atoms: _913  and  _915
REMARK  364  A    between atoms: _915  and  _916
REMARK  365  A    between atoms: _915  and  _918
REMARK  366  A    between atoms: _918  and  _919
REMARK  367  A    between atoms: _919  and  _920
REMARK  368  A    between atoms: _920  and  _921
REMARK  369  A    between atoms: _930  and  _932
REMARK  370  A    between atoms: _932  and  _933
REMARK  371  A    between atoms: _932  and  _935
REMARK  372  A    between atoms: _935  and  _936
REMARK  373  A    between atoms: _941  and  _942
REMARK  374  A    between atoms: _944  and  _946
REMARK  375  A    between atoms: _946  and  _947
REMARK  376  A    between atoms: _946  and  _949
REMARK  377  A    between atoms: _949  and  _950
REMARK                            x       y       z     vdW  Elec       q    Type
REMARK                         _______ _______ _______ _____ _____    ______ ____
ROOT
ATOM      1  O   HOH     1      19.372  21.340  40.473  0.00  0.00    +0.000 OA
ENDROOT
TORSDOF 0
REMARK  Name = ../refined-set-2016/1xr9/1xr9_pocket.pdb
REMARK  377 active torsions:
REMARK  status: ('A' for Active; 'I' for Inactive)
REMARK    1  A    between atoms: _1  and  _3
REMARK    2  A    between atoms: _3  and  _4
REMARK    3  A    between atoms: _3  and  _6
REMARK    4  A    between atoms: _6  and  _7
REMARK    5  A    between atoms: _7  and  _8
REMARK    6  A    between atoms: _10  and  _12
REMARK    7  A    between atoms: _12  and  _13
REMARK    8  A    between atoms: _12  and  _15
REMARK    9  A    between atoms: _15  and  _16
REMARK   10  A    between atoms: _16  and  _17
REMARK   11  A    between atoms: _17  and  _18
REMARK   12  A    between atoms: _27  and  _29
REMARK   13  A    between atoms: _29  and  _30
REMARK   14  A    between atoms: _29  and  _32
REMARK   15  A    between atoms: _32  and  _33
REMARK   16  A    between atoms: _38  and  _39
REMARK   17  A    between atoms: _41  and  _43
REMARK   18  A    between atoms: _43  and  _44
REMARK   19  A    between atoms: _43  and  _46
REMARK   20  A    between atoms: _46  and  _47
REMARK   21  A    between atoms: _53  and  _55
REMARK   22  A    between atoms: _55  and  _56
REMARK   23  A    between atoms: _55  and  _58
REMARK   24  A    between atoms: _58  and  _59
REMARK   25  A    between atoms: _64  and  _65
REMARK   26  A    between atoms: _67  and  _69
REMARK   27  A    between atoms: _69  and  _70
REMARK   28  A    between atoms: _69  and  _72
REMARK   29  A    between atoms: _72  and  _73
REMARK   30  A    between atoms: _79  and  _81
REMARK   31  A    between atoms: _81  and  _82
REMARK   32  A    between atoms: _85  and  _87
REMARK   33  A    between atoms: _87  and  _88
REMARK   34  A    between atoms: _87  and  _90
REMARK   35  A    between atoms: _93  and  _95
REMARK   36  A    between atoms: _95  and  _96
REMARK   37  A    between atoms: _98  and  _100
REMARK   38  A    between atoms: _100  and  _101
REMARK   39  A    between atoms: _100  and  _103
REMARK   40  A    between atoms: _106  and  _108
REMARK   41  A    between atoms: _108  and  _109
REMARK   42  A    between atoms: _108  and  _111
REMARK   43  A    between atoms: _111  and  _112
REMARK   44  A    between atoms: _118  and  _120
REMARK   45  A    between atoms: _120  and  _121
REMARK   46  A    between atoms: _120  and  _123
REMARK   47  A    between atoms: _126  and  _128
REMARK   48  A    between atoms: _128  and  _129
REMARK   49  A    between atoms: _128  and  _131
REMARK   50  A    between atoms: _131  and  _132
REMARK   51  A    between atoms: _138  and  _140
REMARK   52  A    between atoms: _140  and  _141
REMARK   53  A    between atoms: _140  and  _143
REMARK   54  A    between atoms: _143  and  _144
REMARK   55  A    between atoms: _144  and  _145
REMARK   56  A    between atoms: _147  and  _149
REMARK   57  A    between atoms: _149  and  _150
REMARK   58  A    between atoms: _149  and  _152
REMARK   59  A    between atoms: _152  and  _153
REMARK   60  A    between atoms: _156  and  _158
REMARK   61  A    between atoms: _158  and  _159
REMARK   62  A    between atoms: _158  and  _161
REMARK   63  A    between atoms: _161  and  _162
REMARK   64  A    between atoms: _162  and  _163
REMARK   65  A    between atoms: _166  and  _168
REMARK   66  A    between atoms: _168  and  _169
REMARK   67  A    between atoms: _168  and  _171
REMARK   68  A    between atoms: _171  and  _172
REMARK   69  A    between atoms: _172  and  _173
REMARK   70  A    between atoms: _176  and  _178
REMARK   71  A    between atoms: _178  and  _179
REMARK   72  A    between atoms: _178  and  _181
REMARK   73  A    between atoms: _181  and  _182
REMARK   74  A    between atoms: _187  and  _188
REMARK   75  A    between atoms: _190  and  _192
REMARK   76  A    between atoms: _192  and  _193
REMARK   77  A    between atoms: _192  and  _195
REMARK   78  A    between atoms: _195  and  _196
REMARK   79  A    between atoms: _206  and  _208
REMARK   80  A    between atoms: _208  and  _209
REMARK   81  A    between atoms: _208  and  _211
REMARK   82  A    between atoms: _211  and  _212
REMARK   83  A    between atoms: _215  and  _217
REMARK   84  A    between atoms: _217  and  _218
REMARK   85  A    between atoms: _217  and  _220
REMARK   86  A    between atoms: _220  and  _221
REMARK   87  A    between atoms: _221  and  _222
REMARK   88  A    between atoms: _222  and  _223
REMARK   89  A    between atoms: _232  and  _234
REMARK   90  A    between atoms: _234  and  _235
REMARK   91  A    between atoms: _234  and  _237
REMARK   92  A    between atoms: _237  and  _238
REMARK   93  A    between atoms: _238  and  _239
REMARK   94  A    between atoms: _242  and  _244
REMARK   95  A    between atoms: _244  and  _245
REMARK   96  A    between atoms: _244  and  _247
REMARK   97  A    between atoms: _247  and  _248
REMARK   98  A    between atoms: _251  and  _253
REMARK   99  A    between atoms: _253  and  _254
REMARK  100  A    between atoms: _253  and  _256
REMARK  101  A    between atoms: _256  and  _257
REMARK  102  A    between atoms: _257  and  _258
REMARK  103  A    between atoms: _263  and  _265
REMARK  104  A    between atoms: _265  and  _266
REMARK  105  A    between atoms: _265  and  _268
REMARK  106  A    between atoms: _268  and  _269
REMARK  107  A    between atoms: _272  and  _274
REMARK  108  A    between atoms: _274  and  _275
REMARK  109  A    between atoms: _274  and  _277
REMARK  110  A    between atoms: _277  and  _278
REMARK  111  A    between atoms: _280  and  _282
REMARK  112  A    between atoms: _282  and  _283
REMARK  113  A    between atoms: _282  and  _285
REMARK  114  A    between atoms: _285  and  _286
REMARK  115  A    between atoms: _286  and  _287
REMARK  116  A    between atoms: _287  and  _288
REMARK  117  A    between atoms: _288  and  _289
REMARK  118  A    between atoms: _293  and  _295
REMARK  119  A    between atoms: _295  and  _296
REMARK  120  A    between atoms: _295  and  _298
REMARK  121  A    between atoms: _298  and  _299
REMARK  122  A    between atoms: _302  and  _304
REMARK  123  A    between atoms: _304  and  _305
REMARK  124  A    between atoms: _304  and  _307
REMARK  125  A    between atoms: _307  and  _308
REMARK  126  A    between atoms: _313  and  _315
REMARK  127  A    between atoms: _315  and  _316
REMARK  128  A    between atoms: _315  and  _318
REMARK  129  A    between atoms: _318  and  _319
REMARK  130  A    between atoms: _319  and  _320
REMARK  131  A    between atoms: _325  and  _327
REMARK  132  A    between atoms: _327  and  _328
REMARK  133  A    between atoms: _327  and  _330
REMARK  134  A    between atoms: _330  and  _331
REMARK  135  A    between atoms: _334  and  _336
REMARK  136  A    between atoms: _336  and  _337
REMARK  137  A    between atoms: _336  and  _339
REMARK  138  A    between atoms: _339  and  _340
REMARK  139  A    between atoms: _345  and  _346
REMARK  140  A    between atoms: _348  and  _350
REMARK  141  A    between atoms: _350  and  _351
REMARK  142  A    between atoms: _350  and  _353
REMARK  143  A    between atoms: _353  and  _354
REMARK  144  A    between atoms: _354  and  _355
REMARK  145  A    between atoms: _355  and  _356
REMARK  146  A    between atoms: _365  and  _367
REMARK  147  A    between atoms: _367  and  _368
REMARK  148  A    between atoms: _367  and  _370
REMARK  149  A    between atoms: _370  and  _371
REMARK  150  A    between atoms: _371  and  _372
REMARK  151  A    between atoms: _375  and  _377
REMARK  152  A    between atoms: _377  and  _378
REMARK  153  A    between atoms: _377  and  _380
REMARK  154  A    between atoms: _380  and  _381
REMARK  155  A    between atoms: _383  and  _385
REMARK  156  A    between atoms: _385  and  _386
REMARK  157  A    between atoms: _385  and  _388
REMARK  158  A    between atoms: _388  and  _389
REMARK  159  A    between atoms: _392  and  _394
REMARK  160  A    between atoms: _394  and  _395
REMARK  161  A    between atoms: _394  and  _397
REMARK  162  A    between atoms: _397  and  _398
REMARK  163  A    between atoms: _398  and  _399
REMARK  164  A    between atoms: _399  and  _400
REMARK  165  A    between atoms: _409  and  _411
REMARK  166  A    between atoms: _411  and  _412
REMARK  167  A    between atoms: _411  and  _414
REMARK  168  A    between atoms: _414  and  _415
REMARK  169  A    between atoms: _420  and  _422
REMARK  170  A    between atoms: _422  and  _423
REMARK  171  A    between atoms: _422  and  _425
REMARK  172  A    between atoms: _425  and  _426
REMARK  173  A    between atoms: _429  and  _431
REMARK  174  A    between atoms: _431  and  _432
REMARK  175  A    between atoms: _431  and  _434
REMARK  176  A    between atoms: _434  and  _435
REMARK  177  A    between atoms: _440  and  _441
REMARK  178  A    between atoms: _443  and  _445
REMARK  179  A    between atoms: _445  and  _446
REMARK  180  A    between atoms: _445  and  _448
REMARK  181  A    between atoms: _448  and  _449
REMARK  182  A    between atoms: _452  and  _454
REMARK  183  A    between atoms: _454  and  _455
REMARK  184  A    between atoms: _454  and  _457
REMARK  185  A    between atoms: _457  and  _458
REMARK  186  A    between atoms: _458  and  _459
REMARK  187  A    between atoms: _464  and  _466
REMARK  188  A    between atoms: _466  and  _467
REMARK  189  A    between atoms: _466  and  _469
REMARK  190  A    between atoms: _469  and  _470
REMARK  191  A    between atoms: _470  and  _471
REMARK  192  A    between atoms: _471  and  _472
REMARK  193  A    between atoms: _481  and  _483
REMARK  194  A    between atoms: _483  and  _484
REMARK  195  A    between atoms: _483  and  _486
REMARK  196  A    between atoms: _486  and  _487
REMARK  197  A    between atoms: _487  and  _488
REMARK  198  A    between atoms: _490  and  _492
REMARK  199  A    between atoms: _492  and  _493
REMARK  200  A    between atoms: _492  and  _495
REMARK  201  A    between atoms: _495  and  _496
REMARK  202  A    between atoms: _501  and  _502
REMARK  203  A    between atoms: _504  and  _506
REMARK  204  A    between atoms: _506  and  _507
REMARK  205  A    between atoms: _509  and  _511
REMARK  206  A    between atoms: _511  and  _512
REMARK  207  A    between atoms: _511  and  _514
REMARK  208  A    between atoms: _514  and  _515
REMARK  209  A    between atoms: _515  and  _869
REMARK  210  A    between atoms: _516  and  _518
REMARK  211  A    between atoms: _518  and  _519
REMARK  212  A    between atoms: _518  and  _521
REMARK  213  A    between atoms: _521  and  _522
REMARK  214  A    between atoms: _525  and  _527
REMARK  215  A    between atoms: _527  and  _528
REMARK  216  A    between atoms: _527  and  _530
REMARK  217  A    between atoms: _530  and  _531
REMARK  218  A    between atoms: _531  and  _532
REMARK  219  A    between atoms: _537  and  _539
REMARK  220  A    between atoms: _539  and  _540
REMARK  221  A    between atoms: _539  and  _542
REMARK  222  A    between atoms: _542  and  _543
REMARK  223  A    between atoms: _545  and  _547
REMARK  224  A    between atoms: _547  and  _548
REMARK  225  A    between atoms: _551  and  _553
REMARK  226  A    between atoms: _553  and  _554
REMARK  227  A    between atoms: _553  and  _556
REMARK  228  A    between atoms: _556  and  _557
REMARK  229  A    between atoms: _562  and  _563
REMARK  230  A    between atoms: _565  and  _567
REMARK  231  A    between atoms: _567  and  _568
REMARK  232  A    between atoms: _567  and  _570
REMARK  233  A    between atoms: _570  and  _571
REMARK  234  A    between atoms: _576  and  _577
REMARK  235  A    between atoms: _579  and  _581
REMARK  236  A    between atoms: _581  and  _582
REMARK  237  A    between atoms: _581  and  _584
REMARK  238  A    between atoms: _584  and  _585
REMARK  239  A    between atoms: _588  and  _590
REMARK  240  A    between atoms: _590  and  _591
REMARK  241  A    between atoms: _594  and  _596
REMARK  242  A    between atoms: _596  and  _597
REMARK  243  A    between atoms: _596  and  _599
REMARK  244  A    between atoms: _599  and  _600
REMARK  245  A    between atoms: _610  and  _612
REMARK  246  A    between atoms: _612  and  _613
REMARK  247  A    between atoms: _616  and  _618
REMARK  248  A    between atoms: _618  and  _619
REMARK  249  A    between atoms: _622  and  _624
REMARK  250  A    between atoms: _624  and  _625
REMARK  251  A    between atoms: _624  and  _627
REMARK  252  A    between atoms: _627  and  _628
REMARK  253  A    between atoms: _628  and  _629
REMARK  254  A    between atoms: _634  and  _636
REMARK  255  A    between atoms: _636  and  _637
REMARK  256  A    between atoms: _636  and  _639
REMARK  257  A    between atoms: _639  and  _640
REMARK  258  A    between atoms: _643  and  _645
REMARK  259  A    between atoms: _645  and  _646
REMARK  260  A    between atoms: _645  and  _648
REMARK  261  A    between atoms: _648  and  _649
REMARK  262  A    between atoms: _652  and  _654
REMARK  263  A    between atoms: _654  and  _655
REMARK  264  A    between atoms: _654  and  _657
REMARK  265  A    between atoms: _657  and  _658
REMARK  266  A    between atoms: _658  and  _659
REMARK  267  A    between atoms: _664  and  _666
REMARK  268  A    between atoms: _666  and  _667
REMARK  269  A    between atoms: _666  and  _669
REMARK  270  A    between atoms: _669  and  _670
REMARK  271  A    between atoms: _670  and  _671
REMARK  272  A    between atoms: _671  and  _672
REMARK  273  A    between atoms: _681  and  _683
REMARK  274  A    between atoms: _683  and  _684
REMARK  275  A    between atoms: _683  and  _686
REMARK  276  A    between atoms: _686  and  _687
REMARK  277  A    between atoms: _687  and  _688
REMARK  278  A    between atoms: _688  and  _689
REMARK  279  A    between atoms: _689  and  _690
REMARK  280  A    between atoms: _694  and  _696
REMARK  281  A    between atoms: _696  and  _697
REMARK  282  A    between atoms: _696  and  _699
REMARK  283  A    between atoms: _699  and  _700
REMARK  284  A    between atoms: _710  and  _712
REMARK  285  A    between atoms: _712  and  _713
REMARK  286  A    between atoms: _712  and  _715
REMARK  287  A    between atoms: _715  and  _716
REMARK  288  A    between atoms: _716  and  _717
REMARK  289  A    between atoms: _720  and  _722
REMARK  290  A    between atoms: _722  and  _723
REMARK  291  A    between atoms: _726  and  _728
REMARK  292  A    between atoms: _728  and  _729
REMARK  293  A    between atoms: _732  and  _734
REMARK  294  A    between atoms: _734  and  _735
REMARK  295  A    between atoms: _734  and  _737
REMARK  296  A    between atoms: _737  and  _738
REMARK  297  A    between atoms: _738  and  _739
REMARK  298  A    between atoms: _739  and  _740
REMARK  299  A    between atoms: _749  and  _751
REMARK  300  A    between atoms: _751  and  _752
REMARK  301  A    between atoms: _751  and  _754
REMARK  302  A    between atoms: _754  and  _755
REMARK  303  A    between atoms: _755  and  _756
REMARK  304  A    between atoms: _759  and  _761
REMARK  305  A    between atoms: _761  and  _762
REMARK  306  A    between atoms: _765  and  _767
REMARK  307  A    between atoms: _767  and  _768
REMARK  308  A    between atoms: _767  and  _770
REMARK  309  A    between atoms: _770  and  _771
REMARK  310  A    between atoms: _771  and  _772
REMARK  311  A    between atoms: _775  and  _777
REMARK  312  A    between atoms: _777  and  _778
REMARK  313  A    between atoms: _777  and  _780
REMARK  314  A    between atoms: _780  and  _781
REMARK  315  A    between atoms: _781  and  _782
REMARK  316  A    between atoms: _787  and  _789
REMARK  317  A    between atoms: _789  and  _790
REMARK  318  A    between atoms: _789  and  _792
REMARK  319  A    between atoms: _792  and  _793
REMARK  320  A    between atoms: _803  and  _805
REMARK  321  A    between atoms: _805  and  _806
REMARK  322  A    between atoms: _805  and  _808
REMARK  323  A    between atoms: _808  and  _809
REMARK  324  A    between atoms: _809  and  _810
REMARK  325  A    between atoms: _810  and  _811
REMARK  326  A    between atoms: _820  and  _822
REMARK  327  A    between atoms: _822  and  _823
REMARK  328  A    between atoms: _826  and  _828
REMARK  329  A    between atoms: _828  and  _829
REMARK  330  A    between atoms: _828  and  _831
REMARK  331  A    between atoms: _831  and  _832
REMARK  332  A    between atoms: _837  and  _838
REMARK  333  A    between atoms: _840  and  _842
REMARK  334  A    between atoms: _842  and  _843
REMARK  335  A    between atoms: _842  and  _845
REMARK  336  A    between atoms: _845  and  _846
REMARK  337  A    between atoms: _849  and  _851
REMARK  338  A    between atoms: _851  and  _852
REMARK  339  A    between atoms: _854  and  _856
REMARK  340  A    between atoms: _856  and  _857
REMARK  341  A    between atoms: _856  and  _859
REMARK  342  A    between atoms: _859  and  _860
REMARK  343  A    between atoms: _863  and  _865
REMARK  344  A    between atoms: _865  and  _866
REMARK  345  A    between atoms: _865  and  _868
REMARK  346  A    between atoms: _868  and  _869
REMARK  347  A    between atoms: _870  and  _872
REMARK  348  A    between atoms: _872  and  _873
REMARK  349  A    between atoms: _872  and  _875
REMARK  350  A    between atoms: _878  and  _880
REMARK  351  A    between atoms: _880  and  _881
REMARK  352  A    between atoms: _880  and  _883
REMARK  353  A    between atoms: _883  and  _884
REMARK  354  A    between atoms: _884  and  _885
REMARK  355  A    between atoms: _888  and  _890
REMARK  356  A    between atoms: _890  and  _891
REMARK  357  A    between atoms: _890  and  _893
REMARK  358  A    between atoms: _893  and  _894
REMARK  359  A    between atoms: _904  and  _906
REMARK  360  A    between atoms: _906  and  _907
REMARK  361  A    between atoms: _906  and  _909
REMARK  362  A    between atoms: _909  and  _910
REMARK  363  A    between atoms: _913  and  _915
REMARK  364  A    between atoms: _915  and  _916
REMARK  365  A    between atoms: _915  and  _918
REMARK  366  A    between atoms: _918  and  _919
REMARK  367  A    between atoms: _919  and  _920
REMARK  368  A    between atoms: _920  and  _921
REMARK  369  A    between atoms: _930  and  _932
REMARK  370  A    between atoms: _932  and  _933
REMARK  371  A    between atoms: _932  and  _935
REMARK  372  A    between atoms: _935  and  _936
REMARK  373  A    between atoms: _941  and  _942
REMARK  374  A    between atoms: _944  and  _946
REMARK  375  A    between atoms: _946  and  _947
REMARK  376  A    between atoms: _946  and  _949
REMARK  377  A    between atoms: _949  and  _950
REMARK                            x       y       z     vdW  Elec       q    Type
REMARK                         _______ _______ _______ _____ _____    ______ ____
ROOT
ATOM      1  O   HOH     1      19.506  31.534  43.997  0.00  0.00    +0.000 OA
ENDROOT
TORSDOF 0
REMARK  Name = ../refined-set-2016/1xr9/1xr9_pocket.pdb
REMARK  377 active torsions:
REMARK  status: ('A' for Active; 'I' for Inactive)
REMARK    1  A    between atoms: _1  and  _3
REMARK    2  A    between atoms: _3  and  _4
REMARK    3  A    between atoms: _3  and  _6
REMARK    4  A    between atoms: _6  and  _7
REMARK    5  A    between atoms: _7  and  _8
REMARK    6  A    between atoms: _10  and  _12
REMARK    7  A    between atoms: _12  and  _13
REMARK    8  A    between atoms: _12  and  _15
REMARK    9  A    between atoms: _15  and  _16
REMARK   10  A    between atoms: _16  and  _17
REMARK   11  A    between atoms: _17  and  _18
REMARK   12  A    between atoms: _27  and  _29
REMARK   13  A    between atoms: _29  and  _30
REMARK   14  A    between atoms: _29  and  _32
REMARK   15  A    between atoms: _32  and  _33
REMARK   16  A    between atoms: _38  and  _39
REMARK   17  A    between atoms: _41  and  _43
REMARK   18  A    between atoms: _43  and  _44
REMARK   19  A    between atoms: _43  and  _46
REMARK   20  A    between atoms: _46  and  _47
REMARK   21  A    between atoms: _53  and  _55
REMARK   22  A    between atoms: _55  and  _56
REMARK   23  A    between atoms: _55  and  _58
REMARK   24  A    between atoms: _58  and  _59
REMARK   25  A    between atoms: _64  and  _65
REMARK   26  A    between atoms: _67  and  _69
REMARK   27  A    between atoms: _69  and  _70
REMARK   28  A    between atoms: _69  and  _72
REMARK   29  A    between atoms: _72  and  _73
REMARK   30  A    between atoms: _79  and  _81
REMARK   31  A    between atoms: _81  and  _82
REMARK   32  A    between atoms: _85  and  _87
REMARK   33  A    between atoms: _87  and  _88
REMARK   34  A    between atoms: _87  and  _90
REMARK   35  A    between atoms: _93  and  _95
REMARK   36  A    between atoms: _95  and  _96
REMARK   37  A    between atoms: _98  and  _100
REMARK   38  A    between atoms: _100  and  _101
REMARK   39  A    between atoms: _100  and  _103
REMARK   40  A    between atoms: _106  and  _108
REMARK   41  A    between atoms: _108  and  _109
REMARK   42  A    between atoms: _108  and  _111
REMARK   43  A    between atoms: _111  and  _112
REMARK   44  A    between atoms: _118  and  _120
REMARK   45  A    between atoms: _120  and  _121
REMARK   46  A    between atoms: _120  and  _123
REMARK   47  A    between atoms: _126  and  _128
REMARK   48  A    between atoms: _128  and  _129
REMARK   49  A    between atoms: _128  and  _131
REMARK   50  A    between atoms: _131  and  _132
REMARK   51  A    between atoms: _138  and  _140
REMARK   52  A    between atoms: _140  and  _141
REMARK   53  A    between atoms: _140  and  _143
REMARK   54  A    between atoms: _143  and  _144
REMARK   55  A    between atoms: _144  and  _145
REMARK   56  A    between atoms: _147  and  _149
REMARK   57  A    between atoms: _149  and  _150
REMARK   58  A    between atoms: _149  and  _152
REMARK   59  A    between atoms: _152  and  _153
REMARK   60  A    between atoms: _156  and  _158
REMARK   61  A    between atoms: _158  and  _159
REMARK   62  A    between atoms: _158  and  _161
REMARK   63  A    between atoms: _161  and  _162
REMARK   64  A    between atoms: _162  and  _163
REMARK   65  A    between atoms: _166  and  _168
REMARK   66  A    between atoms: _168  and  _169
REMARK   67  A    between atoms: _168  and  _171
REMARK   68  A    between atoms: _171  and  _172
REMARK   69  A    between atoms: _172  and  _173
REMARK   70  A    between atoms: _176  and  _178
REMARK   71  A    between atoms: _178  and  _179
REMARK   72  A    between atoms: _178  and  _181
REMARK   73  A    between atoms: _181  and  _182
REMARK   74  A    between atoms: _187  and  _188
REMARK   75  A    between atoms: _190  and  _192
REMARK   76  A    between atoms: _192  and  _193
REMARK   77  A    between atoms: _192  and  _195
REMARK   78  A    between atoms: _195  and  _196
REMARK   79  A    between atoms: _206  and  _208
REMARK   80  A    between atoms: _208  and  _209
REMARK   81  A    between atoms: _208  and  _211
REMARK   82  A    between atoms: _211  and  _212
REMARK   83  A    between atoms: _215  and  _217
REMARK   84  A    between atoms: _217  and  _218
REMARK   85  A    between atoms: _217  and  _220
REMARK   86  A    between atoms: _220  and  _221
REMARK   87  A    between atoms: _221  and  _222
REMARK   88  A    between atoms: _222  and  _223
REMARK   89  A    between atoms: _232  and  _234
REMARK   90  A    between atoms: _234  and  _235
REMARK   91  A    between atoms: _234  and  _237
REMARK   92  A    between atoms: _237  and  _238
REMARK   93  A    between atoms: _238  and  _239
REMARK   94  A    between atoms: _242  and  _244
REMARK   95  A    between atoms: _244  and  _245
REMARK   96  A    between atoms: _244  and  _247
REMARK   97  A    between atoms: _247  and  _248
REMARK   98  A    between atoms: _251  and  _253
REMARK   99  A    between atoms: _253  and  _254
REMARK  100  A    between atoms: _253  and  _256
REMARK  101  A    between atoms: _256  and  _257
REMARK  102  A    between atoms: _257  and  _258
REMARK  103  A    between atoms: _263  and  _265
REMARK  104  A    between atoms: _265  and  _266
REMARK  105  A    between atoms: _265  and  _268
REMARK  106  A    between atoms: _268  and  _269
REMARK  107  A    between atoms: _272  and  _274
REMARK  108  A    between atoms: _274  and  _275
REMARK  109  A    between atoms: _274  and  _277
REMARK  110  A    between atoms: _277  and  _278
REMARK  111  A    between atoms: _280  and  _282
REMARK  112  A    between atoms: _282  and  _283
REMARK  113  A    between atoms: _282  and  _285
REMARK  114  A    between atoms: _285  and  _286
REMARK  115  A    between atoms: _286  and  _287
REMARK  116  A    between atoms: _287  and  _288
REMARK  117  A    between atoms: _288  and  _289
REMARK  118  A    between atoms: _293  and  _295
REMARK  119  A    between atoms: _295  and  _296
REMARK  120  A    between atoms: _295  and  _298
REMARK  121  A    between atoms: _298  and  _299
REMARK  122  A    between atoms: _302  and  _304
REMARK  123  A    between atoms: _304  and  _305
REMARK  124  A    between atoms: _304  and  _307
REMARK  125  A    between atoms: _307  and  _308
REMARK  126  A    between atoms: _313  and  _315
REMARK  127  A    between atoms: _315  and  _316
REMARK  128  A    between atoms: _315  and  _318
REMARK  129  A    between atoms: _318  and  _319
REMARK  130  A    between atoms: _319  and  _320
REMARK  131  A    between atoms: _325  and  _327
REMARK  132  A    between atoms: _327  and  _328
REMARK  133  A    between atoms: _327  and  _330
REMARK  134  A    between atoms: _330  and  _331
REMARK  135  A    between atoms: _334  and  _336
REMARK  136  A    between atoms: _336  and  _337
REMARK  137  A    between atoms: _336  and  _339
REMARK  138  A    between atoms: _339  and  _340
REMARK  139  A    between atoms: _345  and  _346
REMARK  140  A    between atoms: _348  and  _350
REMARK  141  A    between atoms: _350  and  _351
REMARK  142  A    between atoms: _350  and  _353
REMARK  143  A    between atoms: _353  and  _354
REMARK  144  A    between atoms: _354  and  _355
REMARK  145  A    between atoms: _355  and  _356
REMARK  146  A    between atoms: _365  and  _367
REMARK  147  A    between atoms: _367  and  _368
REMARK  148  A    between atoms: _367  and  _370
REMARK  149  A    between atoms: _370  and  _371
REMARK  150  A    between atoms: _371  and  _372
REMARK  151  A    between atoms: _375  and  _377
REMARK  152  A    between atoms: _377  and  _378
REMARK  153  A    between atoms: _377  and  _380
REMARK  154  A    between atoms: _380  and  _381
REMARK  155  A    between atoms: _383  and  _385
REMARK  156  A    between atoms: _385  and  _386
REMARK  157  A    between atoms: _385  and  _388
REMARK  158  A    between atoms: _388  and  _389
REMARK  159  A    between atoms: _392  and  _394
REMARK  160  A    between atoms: _394  and  _395
REMARK  161  A    between atoms: _394  and  _397
REMARK  162  A    between atoms: _397  and  _398
REMARK  163  A    between atoms: _398  and  _399
REMARK  164  A    between atoms: _399  and  _400
REMARK  165  A    between atoms: _409  and  _411
REMARK  166  A    between atoms: _411  and  _412
REMARK  167  A    between atoms: _411  and  _414
REMARK  168  A    between atoms: _414  and  _415
REMARK  169  A    between atoms: _420  and  _422
REMARK  170  A    between atoms: _422  and  _423
REMARK  171  A    between atoms: _422  and  _425
REMARK  172  A    between atoms: _425  and  _426
REMARK  173  A    between atoms: _429  and  _431
REMARK  174  A    between atoms: _431  and  _432
REMARK  175  A    between atoms: _431  and  _434
REMARK  176  A    between atoms: _434  and  _435
REMARK  177  A    between atoms: _440  and  _441
REMARK  178  A    between atoms: _443  and  _445
REMARK  179  A    between atoms: _445  and  _446
REMARK  180  A    between atoms: _445  and  _448
REMARK  181  A    between atoms: _448  and  _449
REMARK  182  A    between atoms: _452  and  _454
REMARK  183  A    between atoms: _454  and  _455
REMARK  184  A    between atoms: _454  and  _457
REMARK  185  A    between atoms: _457  and  _458
REMARK  186  A    between atoms: _458  and  _459
REMARK  187  A    between atoms: _464  and  _466
REMARK  188  A    between atoms: _466  and  _467
REMARK  189  A    between atoms: _466  and  _469
REMARK  190  A    between atoms: _469  and  _470
REMARK  191  A    between atoms: _470  and  _471
REMARK  192  A    between atoms: _471  and  _472
REMARK  193  A    between atoms: _481  and  _483
REMARK  194  A    between atoms: _483  and  _484
REMARK  195  A    between atoms: _483  and  _486
REMARK  196  A    between atoms: _486  and  _487
REMARK  197  A    between atoms: _487  and  _488
REMARK  198  A    between atoms: _490  and  _492
REMARK  199  A    between atoms: _492  and  _493
REMARK  200  A    between atoms: _492  and  _495
REMARK  201  A    between atoms: _495  and  _496
REMARK  202  A    between atoms: _501  and  _502
REMARK  203  A    between atoms: _504  and  _506
REMARK  204  A    between atoms: _506  and  _507
REMARK  205  A    between atoms: _509  and  _511
REMARK  206  A    between atoms: _511  and  _512
REMARK  207  A    between atoms: _511  and  _514
REMARK  208  A    between atoms: _514  and  _515
REMARK  209  A    between atoms: _515  and  _869
REMARK  210  A    between atoms: _516  and  _518
REMARK  211  A    between atoms: _518  and  _519
REMARK  212  A    between atoms: _518  and  _521
REMARK  213  A    between atoms: _521  and  _522
REMARK  214  A    between atoms: _525  and  _527
REMARK  215  A    between atoms: _527  and  _528
REMARK  216  A    between atoms: _527  and  _530
REMARK  217  A    between atoms: _530  and  _531
REMARK  218  A    between atoms: _531  and  _532
REMARK  219  A    between atoms: _537  and  _539
REMARK  220  A    between atoms: _539  and  _540
REMARK  221  A    between atoms: _539  and  _542
REMARK  222  A    between atoms: _542  and  _543
REMARK  223  A    between atoms: _545  and  _547
REMARK  224  A    between atoms: _547  and  _548
REMARK  225  A    between atoms: _551  and  _553
REMARK  226  A    between atoms: _553  and  _554
REMARK  227  A    between atoms: _553  and  _556
REMARK  228  A    between atoms: _556  and  _557
REMARK  229  A    between atoms: _562  and  _563
REMARK  230  A    between atoms: _565  and  _567
REMARK  231  A    between atoms: _567  and  _568
REMARK  232  A    between atoms: _567  and  _570
REMARK  233  A    between atoms: _570  and  _571
REMARK  234  A    between atoms: _576  and  _577
REMARK  235  A    between atoms: _579  and  _581
REMARK  236  A    between atoms: _581  and  _582
REMARK  237  A    between atoms: _581  and  _584
REMARK  238  A    between atoms: _584  and  _585
REMARK  239  A    between atoms: _588  and  _590
REMARK  240  A    between atoms: _590  and  _591
REMARK  241  A    between atoms: _594  and  _596
REMARK  242  A    between atoms: _596  and  _597
REMARK  243  A    between atoms: _596  and  _599
REMARK  244  A    between atoms: _599  and  _600
REMARK  245  A    between atoms: _610  and  _612
REMARK  246  A    between atoms: _612  and  _613
REMARK  247  A    between atoms: _616  and  _618
REMARK  248  A    between atoms: _618  and  _619
REMARK  249  A    between atoms: _622  and  _624
REMARK  250  A    between atoms: _624  and  _625
REMARK  251  A    between atoms: _624  and  _627
REMARK  252  A    between atoms: _627  and  _628
REMARK  253  A    between atoms: _628  and  _629
REMARK  254  A    between atoms: _634  and  _636
REMARK  255  A    between atoms: _636  and  _637
REMARK  256  A    between atoms: _636  and  _639
REMARK  257  A    between atoms: _639  and  _640
REMARK  258  A    between atoms: _643  and  _645
REMARK  259  A    between atoms: _645  and  _646
REMARK  260  A    between atoms: _645  and  _648
REMARK  261  A    between atoms: _648  and  _649
REMARK  262  A    between atoms: _652  and  _654
REMARK  263  A    between atoms: _654  and  _655
REMARK  264  A    between atoms: _654  and  _657
REMARK  265  A    between atoms: _657  and  _658
REMARK  266  A    between atoms: _658  and  _659
REMARK  267  A    between atoms: _664  and  _666
REMARK  268  A    between atoms: _666  and  _667
REMARK  269  A    between atoms: _666  and  _669
REMARK  270  A    between atoms: _669  and  _670
REMARK  271  A    between atoms: _670  and  _671
REMARK  272  A    between atoms: _671  and  _672
REMARK  273  A    between atoms: _681  and  _683
REMARK  274  A    between atoms: _683  and  _684
REMARK  275  A    between atoms: _683  and  _686
REMARK  276  A    between atoms: _686  and  _687
REMARK  277  A    between atoms: _687  and  _688
REMARK  278  A    between atoms: _688  and  _689
REMARK  279  A    between atoms: _689  and  _690
REMARK  280  A    between atoms: _694  and  _696
REMARK  281  A    between atoms: _696  and  _697
REMARK  282  A    between atoms: _696  and  _699
REMARK  283  A    between atoms: _699  and  _700
REMARK  284  A    between atoms: _710  and  _712
REMARK  285  A    between atoms: _712  and  _713
REMARK  286  A    between atoms: _712  and  _715
REMARK  287  A    between atoms: _715  and  _716
REMARK  288  A    between atoms: _716  and  _717
REMARK  289  A    between atoms: _720  and  _722
REMARK  290  A    between atoms: _722  and  _723
REMARK  291  A    between atoms: _726  and  _728
REMARK  292  A    between atoms: _728  and  _729
REMARK  293  A    between atoms: _732  and  _734
REMARK  294  A    between atoms: _734  and  _735
REMARK  295  A    between atoms: _734  and  _737
REMARK  296  A    between atoms: _737  and  _738
REMARK  297  A    between atoms: _738  and  _739
REMARK  298  A    between atoms: _739  and  _740
REMARK  299  A    between atoms: _749  and  _751
REMARK  300  A    between atoms: _751  and  _752
REMARK  301  A    between atoms: _751  and  _754
REMARK  302  A    between atoms: _754  and  _755
REMARK  303  A    between atoms: _755  and  _756
REMARK  304  A    between atoms: _759  and  _761
REMARK  305  A    between atoms: _761  and  _762
REMARK  306  A    between atoms: _765  and  _767
REMARK  307  A    between atoms: _767  and  _768
REMARK  308  A    between atoms: _767  and  _770
REMARK  309  A    between atoms: _770  and  _771
REMARK  310  A    between atoms: _771  and  _772
REMARK  311  A    between atoms: _775  and  _777
REMARK  312  A    between atoms: _777  and  _778
REMARK  313  A    between atoms: _777  and  _780
REMARK  314  A    between atoms: _780  and  _781
REMARK  315  A    between atoms: _781  and  _782
REMARK  316  A    between atoms: _787  and  _789
REMARK  317  A    between atoms: _789  and  _790
REMARK  318  A    between atoms: _789  and  _792
REMARK  319  A    between atoms: _792  and  _793
REMARK  320  A    between atoms: _803  and  _805
REMARK  321  A    between atoms: _805  and  _806
REMARK  322  A    between atoms: _805  and  _808
REMARK  323  A    between atoms: _808  and  _809
REMARK  324  A    between atoms: _809  and  _810
REMARK  325  A    between atoms: _810  and  _811
REMARK  326  A    between atoms: _820  and  _822
REMARK  327  A    between atoms: _822  and  _823
REMARK  328  A    between atoms: _826  and  _828
REMARK  329  A    between atoms: _828  and  _829
REMARK  330  A    between atoms: _828  and  _831
REMARK  331  A    between atoms: _831  and  _832
REMARK  332  A    between atoms: _837  and  _838
REMARK  333  A    between atoms: _840  and  _842
REMARK  334  A    between atoms: _842  and  _843
REMARK  335  A    between atoms: _842  and  _845
REMARK  336  A    between atoms: _845  and  _846
REMARK  337  A    between atoms: _849  and  _851
REMARK  338  A    between atoms: _851  and  _852
REMARK  339  A    between atoms: _854  and  _856
REMARK  340  A    between atoms: _856  and  _857
REMARK  341  A    between atoms: _856  and  _859
REMARK  342  A    between atoms: _859  and  _860
REMARK  343  A    between atoms: _863  and  _865
REMARK  344  A    between atoms: _865  and  _866
REMARK  345  A    between atoms: _865  and  _868
REMARK  346  A    between atoms: _868  and  _869
REMARK  347  A    between atoms: _870  and  _872
REMARK  348  A    between atoms: _872  and  _873
REMARK  349  A    between atoms: _872  and  _875
REMARK  350  A    between atoms: _878  and  _880
REMARK  351  A    between atoms: _880  and  _881
REMARK  352  A    between atoms: _880  and  _883
REMARK  353  A    between atoms: _883  and  _884
REMARK  354  A    between atoms: _884  and  _885
REMARK  355  A    between atoms: _888  and  _890
REMARK  356  A    between atoms: _890  and  _891
REMARK  357  A    between atoms: _890  and  _893
REMARK  358  A    between atoms: _893  and  _894
REMARK  359  A    between atoms: _904  and  _906
REMARK  360  A    between atoms: _906  and  _907
REMARK  361  A    between atoms: _906  and  _909
REMARK  362  A    between atoms: _909  and  _910
REMARK  363  A    between atoms: _913  and  _915
REMARK  364  A    between atoms: _915  and  _916
REMARK  365  A    between atoms: _915  and  _918
REMARK  366  A    between atoms: _918  and  _919
REMARK  367  A    between atoms: _919  and  _920
REMARK  368  A    between atoms: _920  and  _921
REMARK  369  A    between atoms: _930  and  _932
REMARK  370  A    between atoms: _932  and  _933
REMARK  371  A    between atoms: _932  and  _935
REMARK  372  A    between atoms: _935  and  _936
REMARK  373  A    between atoms: _941  and  _942
REMARK  374  A    between atoms: _944  and  _946
REMARK  375  A    between atoms: _946  and  _947
REMARK  376  A    between atoms: _946  and  _949
REMARK  377  A    between atoms: _949  and  _950
REMARK                            x       y       z     vdW  Elec       q    Type
REMARK                         _______ _______ _______ _____ _____    ______ ____
ROOT
ATOM      1  O   HOH     1      37.196  22.307  40.068  0.00  0.00    +0.000 OA
ENDROOT
TORSDOF 0
REMARK  Name = ../refined-set-2016/1xr9/1xr9_pocket.pdb
REMARK  377 active torsions:
REMARK  status: ('A' for Active; 'I' for Inactive)
REMARK    1  A    between atoms: _1  and  _3
REMARK    2  A    between atoms: _3  and  _4
REMARK    3  A    between atoms: _3  and  _6
REMARK    4  A    between atoms: _6  and  _7
REMARK    5  A    between atoms: _7  and  _8
REMARK    6  A    between atoms: _10  and  _12
REMARK    7  A    between atoms: _12  and  _13
REMARK    8  A    between atoms: _12  and  _15
REMARK    9  A    between atoms: _15  and  _16
REMARK   10  A    between atoms: _16  and  _17
REMARK   11  A    between atoms: _17  and  _18
REMARK   12  A    between atoms: _27  and  _29
REMARK   13  A    between atoms: _29  and  _30
REMARK   14  A    between atoms: _29  and  _32
REMARK   15  A    between atoms: _32  and  _33
REMARK   16  A    between atoms: _38  and  _39
REMARK   17  A    between atoms: _41  and  _43
REMARK   18  A    between atoms: _43  and  _44
REMARK   19  A    between atoms: _43  and  _46
REMARK   20  A    between atoms: _46  and  _47
REMARK   21  A    between atoms: _53  and  _55
REMARK   22  A    between atoms: _55  and  _56
REMARK   23  A    between atoms: _55  and  _58
REMARK   24  A    between atoms: _58  and  _59
REMARK   25  A    between atoms: _64  and  _65
REMARK   26  A    between atoms: _67  and  _69
REMARK   27  A    between atoms: _69  and  _70
REMARK   28  A    between atoms: _69  and  _72
REMARK   29  A    between atoms: _72  and  _73
REMARK   30  A    between atoms: _79  and  _81
REMARK   31  A    between atoms: _81  and  _82
REMARK   32  A    between atoms: _85  and  _87
REMARK   33  A    between atoms: _87  and  _88
REMARK   34  A    between atoms: _87  and  _90
REMARK   35  A    between atoms: _93  and  _95
REMARK   36  A    between atoms: _95  and  _96
REMARK   37  A    between atoms: _98  and  _100
REMARK   38  A    between atoms: _100  and  _101
REMARK   39  A    between atoms: _100  and  _103
REMARK   40  A    between atoms: _106  and  _108
REMARK   41  A    between atoms: _108  and  _109
REMARK   42  A    between atoms: _108  and  _111
REMARK   43  A    between atoms: _111  and  _112
REMARK   44  A    between atoms: _118  and  _120
REMARK   45  A    between atoms: _120  and  _121
REMARK   46  A    between atoms: _120  and  _123
REMARK   47  A    between atoms: _126  and  _128
REMARK   48  A    between atoms: _128  and  _129
REMARK   49  A    between atoms: _128  and  _131
REMARK   50  A    between atoms: _131  and  _132
REMARK   51  A    between atoms: _138  and  _140
REMARK   52  A    between atoms: _140  and  _141
REMARK   53  A    between atoms: _140  and  _143
REMARK   54  A    between atoms: _143  and  _144
REMARK   55  A    between atoms: _144  and  _145
REMARK   56  A    between atoms: _147  and  _149
REMARK   57  A    between atoms: _149  and  _150
REMARK   58  A    between atoms: _149  and  _152
REMARK   59  A    between atoms: _152  and  _153
REMARK   60  A    between atoms: _156  and  _158
REMARK   61  A    between atoms: _158  and  _159
REMARK   62  A    between atoms: _158  and  _161
REMARK   63  A    between atoms: _161  and  _162
REMARK   64  A    between atoms: _162  and  _163
REMARK   65  A    between atoms: _166  and  _168
REMARK   66  A    between atoms: _168  and  _169
REMARK   67  A    between atoms: _168  and  _171
REMARK   68  A    between atoms: _171  and  _172
REMARK   69  A    between atoms: _172  and  _173
REMARK   70  A    between atoms: _176  and  _178
REMARK   71  A    between atoms: _178  and  _179
REMARK   72  A    between atoms: _178  and  _181
REMARK   73  A    between atoms: _181  and  _182
REMARK   74  A    between atoms: _187  and  _188
REMARK   75  A    between atoms: _190  and  _192
REMARK   76  A    between atoms: _192  and  _193
REMARK   77  A    between atoms: _192  and  _195
REMARK   78  A    between atoms: _195  and  _196
REMARK   79  A    between atoms: _206  and  _208
REMARK   80  A    between atoms: _208  and  _209
REMARK   81  A    between atoms: _208  and  _211
REMARK   82  A    between atoms: _211  and  _212
REMARK   83  A    between atoms: _215  and  _217
REMARK   84  A    between atoms: _217  and  _218
REMARK   85  A    between atoms: _217  and  _220
REMARK   86  A    between atoms: _220  and  _221
REMARK   87  A    between atoms: _221  and  _222
REMARK   88  A    between atoms: _222  and  _223
REMARK   89  A    between atoms: _232  and  _234
REMARK   90  A    between atoms: _234  and  _235
REMARK   91  A    between atoms: _234  and  _237
REMARK   92  A    between atoms: _237  and  _238
REMARK   93  A    between atoms: _238  and  _239
REMARK   94  A    between atoms: _242  and  _244
REMARK   95  A    between atoms: _244  and  _245
REMARK   96  A    between atoms: _244  and  _247
REMARK   97  A    between atoms: _247  and  _248
REMARK   98  A    between atoms: _251  and  _253
REMARK   99  A    between atoms: _253  and  _254
REMARK  100  A    between atoms: _253  and  _256
REMARK  101  A    between atoms: _256  and  _257
REMARK  102  A    between atoms: _257  and  _258
REMARK  103  A    between atoms: _263  and  _265
REMARK  104  A    between atoms: _265  and  _266
REMARK  105  A    between atoms: _265  and  _268
REMARK  106  A    between atoms: _268  and  _269
REMARK  107  A    between atoms: _272  and  _274
REMARK  108  A    between atoms: _274  and  _275
REMARK  109  A    between atoms: _274  and  _277
REMARK  110  A    between atoms: _277  and  _278
REMARK  111  A    between atoms: _280  and  _282
REMARK  112  A    between atoms: _282  and  _283
REMARK  113  A    between atoms: _282  and  _285
REMARK  114  A    between atoms: _285  and  _286
REMARK  115  A    between atoms: _286  and  _287
REMARK  116  A    between atoms: _287  and  _288
REMARK  117  A    between atoms: _288  and  _289
REMARK  118  A    between atoms: _293  and  _295
REMARK  119  A    between atoms: _295  and  _296
REMARK  120  A    between atoms: _295  and  _298
REMARK  121  A    between atoms: _298  and  _299
REMARK  122  A    between atoms: _302  and  _304
REMARK  123  A    between atoms: _304  and  _305
REMARK  124  A    between atoms: _304  and  _307
REMARK  125  A    between atoms: _307  and  _308
REMARK  126  A    between atoms: _313  and  _315
REMARK  127  A    between atoms: _315  and  _316
REMARK  128  A    between atoms: _315  and  _318
REMARK  129  A    between atoms: _318  and  _319
REMARK  130  A    between atoms: _319  and  _320
REMARK  131  A    between atoms: _325  and  _327
REMARK  132  A    between atoms: _327  and  _328
REMARK  133  A    between atoms: _327  and  _330
REMARK  134  A    between atoms: _330  and  _331
REMARK  135  A    between atoms: _334  and  _336
REMARK  136  A    between atoms: _336  and  _337
REMARK  137  A    between atoms: _336  and  _339
REMARK  138  A    between atoms: _339  and  _340
REMARK  139  A    between atoms: _345  and  _346
REMARK  140  A    between atoms: _348  and  _350
REMARK  141  A    between atoms: _350  and  _351
REMARK  142  A    between atoms: _350  and  _353
REMARK  143  A    between atoms: _353  and  _354
REMARK  144  A    between atoms: _354  and  _355
REMARK  145  A    between atoms: _355  and  _356
REMARK  146  A    between atoms: _365  and  _367
REMARK  147  A    between atoms: _367  and  _368
REMARK  148  A    between atoms: _367  and  _370
REMARK  149  A    between atoms: _370  and  _371
REMARK  150  A    between atoms: _371  and  _372
REMARK  151  A    between atoms: _375  and  _377
REMARK  152  A    between atoms: _377  and  _378
REMARK  153  A    between atoms: _377  and  _380
REMARK  154  A    between atoms: _380  and  _381
REMARK  155  A    between atoms: _383  and  _385
REMARK  156  A    between atoms: _385  and  _386
REMARK  157  A    between atoms: _385  and  _388
REMARK  158  A    between atoms: _388  and  _389
REMARK  159  A    between atoms: _392  and  _394
REMARK  160  A    between atoms: _394  and  _395
REMARK  161  A    between atoms: _394  and  _397
REMARK  162  A    between atoms: _397  and  _398
REMARK  163  A    between atoms: _398  and  _399
REMARK  164  A    between atoms: _399  and  _400
REMARK  165  A    between atoms: _409  and  _411
REMARK  166  A    between atoms: _411  and  _412
REMARK  167  A    between atoms: _411  and  _414
REMARK  168  A    between atoms: _414  and  _415
REMARK  169  A    between atoms: _420  and  _422
REMARK  170  A    between atoms: _422  and  _423
REMARK  171  A    between atoms: _422  and  _425
REMARK  172  A    between atoms: _425  and  _426
REMARK  173  A    between atoms: _429  and  _431
REMARK  174  A    between atoms: _431  and  _432
REMARK  175  A    between atoms: _431  and  _434
REMARK  176  A    between atoms: _434  and  _435
REMARK  177  A    between atoms: _440  and  _441
REMARK  178  A    between atoms: _443  and  _445
REMARK  179  A    between atoms: _445  and  _446
REMARK  180  A    between atoms: _445  and  _448
REMARK  181  A    between atoms: _448  and  _449
REMARK  182  A    between atoms: _452  and  _454
REMARK  183  A    between atoms: _454  and  _455
REMARK  184  A    between atoms: _454  and  _457
REMARK  185  A    between atoms: _457  and  _458
REMARK  186  A    between atoms: _458  and  _459
REMARK  187  A    between atoms: _464  and  _466
REMARK  188  A    between atoms: _466  and  _467
REMARK  189  A    between atoms: _466  and  _469
REMARK  190  A    between atoms: _469  and  _470
REMARK  191  A    between atoms: _470  and  _471
REMARK  192  A    between atoms: _471  and  _472
REMARK  193  A    between atoms: _481  and  _483
REMARK  194  A    between atoms: _483  and  _484
REMARK  195  A    between atoms: _483  and  _486
REMARK  196  A    between atoms: _486  and  _487
REMARK  197  A    between atoms: _487  and  _488
REMARK  198  A    between atoms: _490  and  _492
REMARK  199  A    between atoms: _492  and  _493
REMARK  200  A    between atoms: _492  and  _495
REMARK  201  A    between atoms: _495  and  _496
REMARK  202  A    between atoms: _501  and  _502
REMARK  203  A    between atoms: _504  and  _506
REMARK  204  A    between atoms: _506  and  _507
REMARK  205  A    between atoms: _509  and  _511
REMARK  206  A    between atoms: _511  and  _512
REMARK  207  A    between atoms: _511  and  _514
REMARK  208  A    between atoms: _514  and  _515
REMARK  209  A    between atoms: _515  and  _869
REMARK  210  A    between atoms: _516  and  _518
REMARK  211  A    between atoms: _518  and  _519
REMARK  212  A    between atoms: _518  and  _521
REMARK  213  A    between atoms: _521  and  _522
REMARK  214  A    between atoms: _525  and  _527
REMARK  215  A    between atoms: _527  and  _528
REMARK  216  A    between atoms: _527  and  _530
REMARK  217  A    between atoms: _530  and  _531
REMARK  218  A    between atoms: _531  and  _532
REMARK  219  A    between atoms: _537  and  _539
REMARK  220  A    between atoms: _539  and  _540
REMARK  221  A    between atoms: _539  and  _542
REMARK  222  A    between atoms: _542  and  _543
REMARK  223  A    between atoms: _545  and  _547
REMARK  224  A    between atoms: _547  and  _548
REMARK  225  A    between atoms: _551  and  _553
REMARK  226  A    between atoms: _553  and  _554
REMARK  227  A    between atoms: _553  and  _556
REMARK  228  A    between atoms: _556  and  _557
REMARK  229  A    between atoms: _562  and  _563
REMARK  230  A    between atoms: _565  and  _567
REMARK  231  A    between atoms: _567  and  _568
REMARK  232  A    between atoms: _567  and  _570
REMARK  233  A    between atoms: _570  and  _571
REMARK  234  A    between atoms: _576  and  _577
REMARK  235  A    between atoms: _579  and  _581
REMARK  236  A    between atoms: _581  and  _582
REMARK  237  A    between atoms: _581  and  _584
REMARK  238  A    between atoms: _584  and  _585
REMARK  239  A    between atoms: _588  and  _590
REMARK  240  A    between atoms: _590  and  _591
REMARK  241  A    between atoms: _594  and  _596
REMARK  242  A    between atoms: _596  and  _597
REMARK  243  A    between atoms: _596  and  _599
REMARK  244  A    between atoms: _599  and  _600
REMARK  245  A    between atoms: _610  and  _612
REMARK  246  A    between atoms: _612  and  _613
REMARK  247  A    between atoms: _616  and  _618
REMARK  248  A    between atoms: _618  and  _619
REMARK  249  A    between atoms: _622  and  _624
REMARK  250  A    between atoms: _624  and  _625
REMARK  251  A    between atoms: _624  and  _627
REMARK  252  A    between atoms: _627  and  _628
REMARK  253  A    between atoms: _628  and  _629
REMARK  254  A    between atoms: _634  and  _636
REMARK  255  A    between atoms: _636  and  _637
REMARK  256  A    between atoms: _636  and  _639
REMARK  257  A    between atoms: _639  and  _640
REMARK  258  A    between atoms: _643  and  _645
REMARK  259  A    between atoms: _645  and  _646
REMARK  260  A    between atoms: _645  and  _648
REMARK  261  A    between atoms: _648  and  _649
REMARK  262  A    between atoms: _652  and  _654
REMARK  263  A    between atoms: _654  and  _655
REMARK  264  A    between atoms: _654  and  _657
REMARK  265  A    between atoms: _657  and  _658
REMARK  266  A    between atoms: _658  and  _659
REMARK  267  A    between atoms: _664  and  _666
REMARK  268  A    between atoms: _666  and  _667
REMARK  269  A    between atoms: _666  and  _669
REMARK  270  A    between atoms: _669  and  _670
REMARK  271  A    between atoms: _670  and  _671
REMARK  272  A    between atoms: _671  and  _672
REMARK  273  A    between atoms: _681  and  _683
REMARK  274  A    between atoms: _683  and  _684
REMARK  275  A    between atoms: _683  and  _686
REMARK  276  A    between atoms: _686  and  _687
REMARK  277  A    between atoms: _687  and  _688
REMARK  278  A    between atoms: _688  and  _689
REMARK  279  A    between atoms: _689  and  _690
REMARK  280  A    between atoms: _694  and  _696
REMARK  281  A    between atoms: _696  and  _697
REMARK  282  A    between atoms: _696  and  _699
REMARK  283  A    between atoms: _699  and  _700
REMARK  284  A    between atoms: _710  and  _712
REMARK  285  A    between atoms: _712  and  _713
REMARK  286  A    between atoms: _712  and  _715
REMARK  287  A    between atoms: _715  and  _716
REMARK  288  A    between atoms: _716  and  _717
REMARK  289  A    between atoms: _720  and  _722
REMARK  290  A    between atoms: _722  and  _723
REMARK  291  A    between atoms: _726  and  _728
REMARK  292  A    between atoms: _728  and  _729
REMARK  293  A    between atoms: _732  and  _734
REMARK  294  A    between atoms: _734  and  _735
REMARK  295  A    between atoms: _734  and  _737
REMARK  296  A    between atoms: _737  and  _738
REMARK  297  A    between atoms: _738  and  _739
REMARK  298  A    between atoms: _739  and  _740
REMARK  299  A    between atoms: _749  and  _751
REMARK  300  A    between atoms: _751  and  _752
REMARK  301  A    between atoms: _751  and  _754
REMARK  302  A    between atoms: _754  and  _755
REMARK  303  A    between atoms: _755  and  _756
REMARK  304  A    between atoms: _759  and  _761
REMARK  305  A    between atoms: _761  and  _762
REMARK  306  A    between atoms: _765  and  _767
REMARK  307  A    between atoms: _767  and  _768
REMARK  308  A    between atoms: _767  and  _770
REMARK  309  A    between atoms: _770  and  _771
REMARK  310  A    between atoms: _771  and  _772
REMARK  311  A    between atoms: _775  and  _777
REMARK  312  A    between atoms: _777  and  _778
REMARK  313  A    between atoms: _777  and  _780
REMARK  314  A    between atoms: _780  and  _781
REMARK  315  A    between atoms: _781  and  _782
REMARK  316  A    between atoms: _787  and  _789
REMARK  317  A    between atoms: _789  and  _790
REMARK  318  A    between atoms: _789  and  _792
REMARK  319  A    between atoms: _792  and  _793
REMARK  320  A    between atoms: _803  and  _805
REMARK  321  A    between atoms: _805  and  _806
REMARK  322  A    between atoms: _805  and  _808
REMARK  323  A    between atoms: _808  and  _809
REMARK  324  A    between atoms: _809  and  _810
REMARK  325  A    between atoms: _810  and  _811
REMARK  326  A    between atoms: _820  and  _822
REMARK  327  A    between atoms: _822  and  _823
REMARK  328  A    between atoms: _826  and  _828
REMARK  329  A    between atoms: _828  and  _829
REMARK  330  A    between atoms: _828  and  _831
REMARK  331  A    between atoms: _831  and  _832
REMARK  332  A    between atoms: _837  and  _838
REMARK  333  A    between atoms: _840  and  _842
REMARK  334  A    between atoms: _842  and  _843
REMARK  335  A    between atoms: _842  and  _845
REMARK  336  A    between atoms: _845  and  _846
REMARK  337  A    between atoms: _849  and  _851
REMARK  338  A    between atoms: _851  and  _852
REMARK  339  A    between atoms: _854  and  _856
REMARK  340  A    between atoms: _856  and  _857
REMARK  341  A    between atoms: _856  and  _859
REMARK  342  A    between atoms: _859  and  _860
REMARK  343  A    between atoms: _863  and  _865
REMARK  344  A    between atoms: _865  and  _866
REMARK  345  A    between atoms: _865  and  _868
REMARK  346  A    between atoms: _868  and  _869
REMARK  347  A    between atoms: _870  and  _872
REMARK  348  A    between atoms: _872  and  _873
REMARK  349  A    between atoms: _872  and  _875
REMARK  350  A    between atoms: _878  and  _880
REMARK  351  A    between atoms: _880  and  _881
REMARK  352  A    between atoms: _880  and  _883
REMARK  353  A    between atoms: _883  and  _884
REMARK  354  A    between atoms: _884  and  _885
REMARK  355  A    between atoms: _888  and  _890
REMARK  356  A    between atoms: _890  and  _891
REMARK  357  A    between atoms: _890  and  _893
REMARK  358  A    between atoms: _893  and  _894
REMARK  359  A    between atoms: _904  and  _906
REMARK  360  A    between atoms: _906  and  _907
REMARK  361  A    between atoms: _906  and  _909
REMARK  362  A    between atoms: _909  and  _910
REMARK  363  A    between atoms: _913  and  _915
REMARK  364  A    between atoms: _915  and  _916
REMARK  365  A    between atoms: _915  and  _918
REMARK  366  A    between atoms: _918  and  _919
REMARK  367  A    between atoms: _919  and  _920
REMARK  368  A    between atoms: _920  and  _921
REMARK  369  A    between atoms: _930  and  _932
REMARK  370  A    between atoms: _932  and  _933
REMARK  371  A    between atoms: _932  and  _935
REMARK  372  A    between atoms: _935  and  _936
REMARK  373  A    between atoms: _941  and  _942
REMARK  374  A    between atoms: _944  and  _946
REMARK  375  A    between atoms: _946  and  _947
REMARK  376  A    between atoms: _946  and  _949
REMARK  377  A    between atoms: _949  and  _950
REMARK                            x       y       z     vdW  Elec       q    Type
REMARK                         _______ _______ _______ _____ _____    ______ ____
ROOT
ATOM      1  O   HOH     1      30.254  34.438  39.671  0.00  0.00    +0.000 OA
ENDROOT
TORSDOF 0
REMARK  Name = ../refined-set-2016/1xr9/1xr9_pocket.pdb
REMARK  377 active torsions:
REMARK  status: ('A' for Active; 'I' for Inactive)
REMARK    1  A    between atoms: _1  and  _3
REMARK    2  A    between atoms: _3  and  _4
REMARK    3  A    between atoms: _3  and  _6
REMARK    4  A    between atoms: _6  and  _7
REMARK    5  A    between atoms: _7  and  _8
REMARK    6  A    between atoms: _10  and  _12
REMARK    7  A    between atoms: _12  and  _13
REMARK    8  A    between atoms: _12  and  _15
REMARK    9  A    between atoms: _15  and  _16
REMARK   10  A    between atoms: _16  and  _17
REMARK   11  A    between atoms: _17  and  _18
REMARK   12  A    between atoms: _27  and  _29
REMARK   13  A    between atoms: _29  and  _30
REMARK   14  A    between atoms: _29  and  _32
REMARK   15  A    between atoms: _32  and  _33
REMARK   16  A    between atoms: _38  and  _39
REMARK   17  A    between atoms: _41  and  _43
REMARK   18  A    between atoms: _43  and  _44
REMARK   19  A    between atoms: _43  and  _46
REMARK   20  A    between atoms: _46  and  _47
REMARK   21  A    between atoms: _53  and  _55
REMARK   22  A    between atoms: _55  and  _56
REMARK   23  A    between atoms: _55  and  _58
REMARK   24  A    between atoms: _58  and  _59
REMARK   25  A    between atoms: _64  and  _65
REMARK   26  A    between atoms: _67  and  _69
REMARK   27  A    between atoms: _69  and  _70
REMARK   28  A    between atoms: _69  and  _72
REMARK   29  A    between atoms: _72  and  _73
REMARK   30  A    between atoms: _79  and  _81
REMARK   31  A    between atoms: _81  and  _82
REMARK   32  A    between atoms: _85  and  _87
REMARK   33  A    between atoms: _87  and  _88
REMARK   34  A    between atoms: _87  and  _90
REMARK   35  A    between atoms: _93  and  _95
REMARK   36  A    between atoms: _95  and  _96
REMARK   37  A    between atoms: _98  and  _100
REMARK   38  A    between atoms: _100  and  _101
REMARK   39  A    between atoms: _100  and  _103
REMARK   40  A    between atoms: _106  and  _108
REMARK   41  A    between atoms: _108  and  _109
REMARK   42  A    between atoms: _108  and  _111
REMARK   43  A    between atoms: _111  and  _112
REMARK   44  A    between atoms: _118  and  _120
REMARK   45  A    between atoms: _120  and  _121
REMARK   46  A    between atoms: _120  and  _123
REMARK   47  A    between atoms: _126  and  _128
REMARK   48  A    between atoms: _128  and  _129
REMARK   49  A    between atoms: _128  and  _131
REMARK   50  A    between atoms: _131  and  _132
REMARK   51  A    between atoms: _138  and  _140
REMARK   52  A    between atoms: _140  and  _141
REMARK   53  A    between atoms: _140  and  _143
REMARK   54  A    between atoms: _143  and  _144
REMARK   55  A    between atoms: _144  and  _145
REMARK   56  A    between atoms: _147  and  _149
REMARK   57  A    between atoms: _149  and  _150
REMARK   58  A    between atoms: _149  and  _152
REMARK   59  A    between atoms: _152  and  _153
REMARK   60  A    between atoms: _156  and  _158
REMARK   61  A    between atoms: _158  and  _159
REMARK   62  A    between atoms: _158  and  _161
REMARK   63  A    between atoms: _161  and  _162
REMARK   64  A    between atoms: _162  and  _163
REMARK   65  A    between atoms: _166  and  _168
REMARK   66  A    between atoms: _168  and  _169
REMARK   67  A    between atoms: _168  and  _171
REMARK   68  A    between atoms: _171  and  _172
REMARK   69  A    between atoms: _172  and  _173
REMARK   70  A    between atoms: _176  and  _178
REMARK   71  A    between atoms: _178  and  _179
REMARK   72  A    between atoms: _178  and  _181
REMARK   73  A    between atoms: _181  and  _182
REMARK   74  A    between atoms: _187  and  _188
REMARK   75  A    between atoms: _190  and  _192
REMARK   76  A    between atoms: _192  and  _193
REMARK   77  A    between atoms: _192  and  _195
REMARK   78  A    between atoms: _195  and  _196
REMARK   79  A    between atoms: _206  and  _208
REMARK   80  A    between atoms: _208  and  _209
REMARK   81  A    between atoms: _208  and  _211
REMARK   82  A    between atoms: _211  and  _212
REMARK   83  A    between atoms: _215  and  _217
REMARK   84  A    between atoms: _217  and  _218
REMARK   85  A    between atoms: _217  and  _220
REMARK   86  A    between atoms: _220  and  _221
REMARK   87  A    between atoms: _221  and  _222
REMARK   88  A    between atoms: _222  and  _223
REMARK   89  A    between atoms: _232  and  _234
REMARK   90  A    between atoms: _234  and  _235
REMARK   91  A    between atoms: _234  and  _237
REMARK   92  A    between atoms: _237  and  _238
REMARK   93  A    between atoms: _238  and  _239
REMARK   94  A    between atoms: _242  and  _244
REMARK   95  A    between atoms: _244  and  _245
REMARK   96  A    between atoms: _244  and  _247
REMARK   97  A    between atoms: _247  and  _248
REMARK   98  A    between atoms: _251  and  _253
REMARK   99  A    between atoms: _253  and  _254
REMARK  100  A    between atoms: _253  and  _256
REMARK  101  A    between atoms: _256  and  _257
REMARK  102  A    between atoms: _257  and  _258
REMARK  103  A    between atoms: _263  and  _265
REMARK  104  A    between atoms: _265  and  _266
REMARK  105  A    between atoms: _265  and  _268
REMARK  106  A    between atoms: _268  and  _269
REMARK  107  A    between atoms: _272  and  _274
REMARK  108  A    between atoms: _274  and  _275
REMARK  109  A    between atoms: _274  and  _277
REMARK  110  A    between atoms: _277  and  _278
REMARK  111  A    between atoms: _280  and  _282
REMARK  112  A    between atoms: _282  and  _283
REMARK  113  A    between atoms: _282  and  _285
REMARK  114  A    between atoms: _285  and  _286
REMARK  115  A    between atoms: _286  and  _287
REMARK  116  A    between atoms: _287  and  _288
REMARK  117  A    between atoms: _288  and  _289
REMARK  118  A    between atoms: _293  and  _295
REMARK  119  A    between atoms: _295  and  _296
REMARK  120  A    between atoms: _295  and  _298
REMARK  121  A    between atoms: _298  and  _299
REMARK  122  A    between atoms: _302  and  _304
REMARK  123  A    between atoms: _304  and  _305
REMARK  124  A    between atoms: _304  and  _307
REMARK  125  A    between atoms: _307  and  _308
REMARK  126  A    between atoms: _313  and  _315
REMARK  127  A    between atoms: _315  and  _316
REMARK  128  A    between atoms: _315  and  _318
REMARK  129  A    between atoms: _318  and  _319
REMARK  130  A    between atoms: _319  and  _320
REMARK  131  A    between atoms: _325  and  _327
REMARK  132  A    between atoms: _327  and  _328
REMARK  133  A    between atoms: _327  and  _330
REMARK  134  A    between atoms: _330  and  _331
REMARK  135  A    between atoms: _334  and  _336
REMARK  136  A    between atoms: _336  and  _337
REMARK  137  A    between atoms: _336  and  _339
REMARK  138  A    between atoms: _339  and  _340
REMARK  139  A    between atoms: _345  and  _346
REMARK  140  A    between atoms: _348  and  _350
REMARK  141  A    between atoms: _350  and  _351
REMARK  142  A    between atoms: _350  and  _353
REMARK  143  A    between atoms: _353  and  _354
REMARK  144  A    between atoms: _354  and  _355
REMARK  145  A    between atoms: _355  and  _356
REMARK  146  A    between atoms: _365  and  _367
REMARK  147  A    between atoms: _367  and  _368
REMARK  148  A    between atoms: _367  and  _370
REMARK  149  A    between atoms: _370  and  _371
REMARK  150  A    between atoms: _371  and  _372
REMARK  151  A    between atoms: _375  and  _377
REMARK  152  A    between atoms: _377  and  _378
REMARK  153  A    between atoms: _377  and  _380
REMARK  154  A    between atoms: _380  and  _381
REMARK  155  A    between atoms: _383  and  _385
REMARK  156  A    between atoms: _385  and  _386
REMARK  157  A    between atoms: _385  and  _388
REMARK  158  A    between atoms: _388  and  _389
REMARK  159  A    between atoms: _392  and  _394
REMARK  160  A    between atoms: _394  and  _395
REMARK  161  A    between atoms: _394  and  _397
REMARK  162  A    between atoms: _397  and  _398
REMARK  163  A    between atoms: _398  and  _399
REMARK  164  A    between atoms: _399  and  _400
REMARK  165  A    between atoms: _409  and  _411
REMARK  166  A    between atoms: _411  and  _412
REMARK  167  A    between atoms: _411  and  _414
REMARK  168  A    between atoms: _414  and  _415
REMARK  169  A    between atoms: _420  and  _422
REMARK  170  A    between atoms: _422  and  _423
REMARK  171  A    between atoms: _422  and  _425
REMARK  172  A    between atoms: _425  and  _426
REMARK  173  A    between atoms: _429  and  _431
REMARK  174  A    between atoms: _431  and  _432
REMARK  175  A    between atoms: _431  and  _434
REMARK  176  A    between atoms: _434  and  _435
REMARK  177  A    between atoms: _440  and  _441
REMARK  178  A    between atoms: _443  and  _445
REMARK  179  A    between atoms: _445  and  _446
REMARK  180  A    between atoms: _445  and  _448
REMARK  181  A    between atoms: _448  and  _449
REMARK  182  A    between atoms: _452  and  _454
REMARK  183  A    between atoms: _454  and  _455
REMARK  184  A    between atoms: _454  and  _457
REMARK  185  A    between atoms: _457  and  _458
REMARK  186  A    between atoms: _458  and  _459
REMARK  187  A    between atoms: _464  and  _466
REMARK  188  A    between atoms: _466  and  _467
REMARK  189  A    between atoms: _466  and  _469
REMARK  190  A    between atoms: _469  and  _470
REMARK  191  A    between atoms: _470  and  _471
REMARK  192  A    between atoms: _471  and  _472
REMARK  193  A    between atoms: _481  and  _483
REMARK  194  A    between atoms: _483  and  _484
REMARK  195  A    between atoms: _483  and  _486
REMARK  196  A    between atoms: _486  and  _487
REMARK  197  A    between atoms: _487  and  _488
REMARK  198  A    between atoms: _490  and  _492
REMARK  199  A    between atoms: _492  and  _493
REMARK  200  A    between atoms: _492  and  _495
REMARK  201  A    between atoms: _495  and  _496
REMARK  202  A    between atoms: _501  and  _502
REMARK  203  A    between atoms: _504  and  _506
REMARK  204  A    between atoms: _506  and  _507
REMARK  205  A    between atoms: _509  and  _511
REMARK  206  A    between atoms: _511  and  _512
REMARK  207  A    between atoms: _511  and  _514
REMARK  208  A    between atoms: _514  and  _515
REMARK  209  A    between atoms: _515  and  _869
REMARK  210  A    between atoms: _516  and  _518
REMARK  211  A    between atoms: _518  and  _519
REMARK  212  A    between atoms: _518  and  _521
REMARK  213  A    between atoms: _521  and  _522
REMARK  214  A    between atoms: _525  and  _527
REMARK  215  A    between atoms: _527  and  _528
REMARK  216  A    between atoms: _527  and  _530
REMARK  217  A    between atoms: _530  and  _531
REMARK  218  A    between atoms: _531  and  _532
REMARK  219  A    between atoms: _537  and  _539
REMARK  220  A    between atoms: _539  and  _540
REMARK  221  A    between atoms: _539  and  _542
REMARK  222  A    between atoms: _542  and  _543
REMARK  223  A    between atoms: _545  and  _547
REMARK  224  A    between atoms: _547  and  _548
REMARK  225  A    between atoms: _551  and  _553
REMARK  226  A    between atoms: _553  and  _554
REMARK  227  A    between atoms: _553  and  _556
REMARK  228  A    between atoms: _556  and  _557
REMARK  229  A    between atoms: _562  and  _563
REMARK  230  A    between atoms: _565  and  _567
REMARK  231  A    between atoms: _567  and  _568
REMARK  232  A    between atoms: _567  and  _570
REMARK  233  A    between atoms: _570  and  _571
REMARK  234  A    between atoms: _576  and  _577
REMARK  235  A    between atoms: _579  and  _581
REMARK  236  A    between atoms: _581  and  _582
REMARK  237  A    between atoms: _581  and  _584
REMARK  238  A    between atoms: _584  and  _585
REMARK  239  A    between atoms: _588  and  _590
REMARK  240  A    between atoms: _590  and  _591
REMARK  241  A    between atoms: _594  and  _596
REMARK  242  A    between atoms: _596  and  _597
REMARK  243  A    between atoms: _596  and  _599
REMARK  244  A    between atoms: _599  and  _600
REMARK  245  A    between atoms: _610  and  _612
REMARK  246  A    between atoms: _612  and  _613
REMARK  247  A    between atoms: _616  and  _618
REMARK  248  A    between atoms: _618  and  _619
REMARK  249  A    between atoms: _622  and  _624
REMARK  250  A    between atoms: _624  and  _625
REMARK  251  A    between atoms: _624  and  _627
REMARK  252  A    between atoms: _627  and  _628
REMARK  253  A    between atoms: _628  and  _629
REMARK  254  A    between atoms: _634  and  _636
REMARK  255  A    between atoms: _636  and  _637
REMARK  256  A    between atoms: _636  and  _639
REMARK  257  A    between atoms: _639  and  _640
REMARK  258  A    between atoms: _643  and  _645
REMARK  259  A    between atoms: _645  and  _646
REMARK  260  A    between atoms: _645  and  _648
REMARK  261  A    between atoms: _648  and  _649
REMARK  262  A    between atoms: _652  and  _654
REMARK  263  A    between atoms: _654  and  _655
REMARK  264  A    between atoms: _654  and  _657
REMARK  265  A    between atoms: _657  and  _658
REMARK  266  A    between atoms: _658  and  _659
REMARK  267  A    between atoms: _664  and  _666
REMARK  268  A    between atoms: _666  and  _667
REMARK  269  A    between atoms: _666  and  _669
REMARK  270  A    between atoms: _669  and  _670
REMARK  271  A    between atoms: _670  and  _671
REMARK  272  A    between atoms: _671  and  _672
REMARK  273  A    between atoms: _681  and  _683
REMARK  274  A    between atoms: _683  and  _684
REMARK  275  A    between atoms: _683  and  _686
REMARK  276  A    between atoms: _686  and  _687
REMARK  277  A    between atoms: _687  and  _688
REMARK  278  A    between atoms: _688  and  _689
REMARK  279  A    between atoms: _689  and  _690
REMARK  280  A    between atoms: _694  and  _696
REMARK  281  A    between atoms: _696  and  _697
REMARK  282  A    between atoms: _696  and  _699
REMARK  283  A    between atoms: _699  and  _700
REMARK  284  A    between atoms: _710  and  _712
REMARK  285  A    between atoms: _712  and  _713
REMARK  286  A    between atoms: _712  and  _715
REMARK  287  A    between atoms: _715  and  _716
REMARK  288  A    between atoms: _716  and  _717
REMARK  289  A    between atoms: _720  and  _722
REMARK  290  A    between atoms: _722  and  _723
REMARK  291  A    between atoms: _726  and  _728
REMARK  292  A    between atoms: _728  and  _729
REMARK  293  A    between atoms: _732  and  _734
REMARK  294  A    between atoms: _734  and  _735
REMARK  295  A    between atoms: _734  and  _737
REMARK  296  A    between atoms: _737  and  _738
REMARK  297  A    between atoms: _738  and  _739
REMARK  298  A    between atoms: _739  and  _740
REMARK  299  A    between atoms: _749  and  _751
REMARK  300  A    between atoms: _751  and  _752
REMARK  301  A    between atoms: _751  and  _754
REMARK  302  A    between atoms: _754  and  _755
REMARK  303  A    between atoms: _755  and  _756
REMARK  304  A    between atoms: _759  and  _761
REMARK  305  A    between atoms: _761  and  _762
REMARK  306  A    between atoms: _765  and  _767
REMARK  307  A    between atoms: _767  and  _768
REMARK  308  A    between atoms: _767  and  _770
REMARK  309  A    between atoms: _770  and  _771
REMARK  310  A    between atoms: _771  and  _772
REMARK  311  A    between atoms: _775  and  _777
REMARK  312  A    between atoms: _777  and  _778
REMARK  313  A    between atoms: _777  and  _780
REMARK  314  A    between atoms: _780  and  _781
REMARK  315  A    between atoms: _781  and  _782
REMARK  316  A    between atoms: _787  and  _789
REMARK  317  A    between atoms: _789  and  _790
REMARK  318  A    between atoms: _789  and  _792
REMARK  319  A    between atoms: _792  and  _793
REMARK  320  A    between atoms: _803  and  _805
REMARK  321  A    between atoms: _805  and  _806
REMARK  322  A    between atoms: _805  and  _808
REMARK  323  A    between atoms: _808  and  _809
REMARK  324  A    between atoms: _809  and  _810
REMARK  325  A    between atoms: _810  and  _811
REMARK  326  A    between atoms: _820  and  _822
REMARK  327  A    between atoms: _822  and  _823
REMARK  328  A    between atoms: _826  and  _828
REMARK  329  A    between atoms: _828  and  _829
REMARK  330  A    between atoms: _828  and  _831
REMARK  331  A    between atoms: _831  and  _832
REMARK  332  A    between atoms: _837  and  _838
REMARK  333  A    between atoms: _840  and  _842
REMARK  334  A    between atoms: _842  and  _843
REMARK  335  A    between atoms: _842  and  _845
REMARK  336  A    between atoms: _845  and  _846
REMARK  337  A    between atoms: _849  and  _851
REMARK  338  A    between atoms: _851  and  _852
REMARK  339  A    between atoms: _854  and  _856
REMARK  340  A    between atoms: _856  and  _857
REMARK  341  A    between atoms: _856  and  _859
REMARK  342  A    between atoms: _859  and  _860
REMARK  343  A    between atoms: _863  and  _865
REMARK  344  A    between atoms: _865  and  _866
REMARK  345  A    between atoms: _865  and  _868
REMARK  346  A    between atoms: _868  and  _869
REMARK  347  A    between atoms: _870  and  _872
REMARK  348  A    between atoms: _872  and  _873
REMARK  349  A    between atoms: _872  and  _875
REMARK  350  A    between atoms: _878  and  _880
REMARK  351  A    between atoms: _880  and  _881
REMARK  352  A    between atoms: _880  and  _883
REMARK  353  A    between atoms: _883  and  _884
REMARK  354  A    between atoms: _884  and  _885
REMARK  355  A    between atoms: _888  and  _890
REMARK  356  A    between atoms: _890  and  _891
REMARK  357  A    between atoms: _890  and  _893
REMARK  358  A    between atoms: _893  and  _894
REMARK  359  A    between atoms: _904  and  _906
REMARK  360  A    between atoms: _906  and  _907
REMARK  361  A    between atoms: _906  and  _909
REMARK  362  A    between atoms: _909  and  _910
REMARK  363  A    between atoms: _913  and  _915
REMARK  364  A    between atoms: _915  and  _916
REMARK  365  A    between atoms: _915  and  _918
REMARK  366  A    between atoms: _918  and  _919
REMARK  367  A    between atoms: _919  and  _920
REMARK  368  A    between atoms: _920  and  _921
REMARK  369  A    between atoms: _930  and  _932
REMARK  370  A    between atoms: _932  and  _933
REMARK  371  A    between atoms: _932  and  _935
REMARK  372  A    between atoms: _935  and  _936
REMARK  373  A    between atoms: _941  and  _942
REMARK  374  A    between atoms: _944  and  _946
REMARK  375  A    between atoms: _946  and  _947
REMARK  376  A    between atoms: _946  and  _949
REMARK  377  A    between atoms: _949  and  _950
REMARK                            x       y       z     vdW  Elec       q    Type
REMARK                         _______ _______ _______ _____ _____    ______ ____
ROOT
ATOM      1  O   HOH     1      30.370  32.613  41.657  0.00  0.00    +0.000 OA
ENDROOT
TORSDOF 0
REMARK  Name = ../refined-set-2016/1xr9/1xr9_pocket.pdb
REMARK  377 active torsions:
REMARK  status: ('A' for Active; 'I' for Inactive)
REMARK    1  A    between atoms: _1  and  _3
REMARK    2  A    between atoms: _3  and  _4
REMARK    3  A    between atoms: _3  and  _6
REMARK    4  A    between atoms: _6  and  _7
REMARK    5  A    between atoms: _7  and  _8
REMARK    6  A    between atoms: _10  and  _12
REMARK    7  A    between atoms: _12  and  _13
REMARK    8  A    between atoms: _12  and  _15
REMARK    9  A    between atoms: _15  and  _16
REMARK   10  A    between atoms: _16  and  _17
REMARK   11  A    between atoms: _17  and  _18
REMARK   12  A    between atoms: _27  and  _29
REMARK   13  A    between atoms: _29  and  _30
REMARK   14  A    between atoms: _29  and  _32
REMARK   15  A    between atoms: _32  and  _33
REMARK   16  A    between atoms: _38  and  _39
REMARK   17  A    between atoms: _41  and  _43
REMARK   18  A    between atoms: _43  and  _44
REMARK   19  A    between atoms: _43  and  _46
REMARK   20  A    between atoms: _46  and  _47
REMARK   21  A    between atoms: _53  and  _55
REMARK   22  A    between atoms: _55  and  _56
REMARK   23  A    between atoms: _55  and  _58
REMARK   24  A    between atoms: _58  and  _59
REMARK   25  A    between atoms: _64  and  _65
REMARK   26  A    between atoms: _67  and  _69
REMARK   27  A    between atoms: _69  and  _70
REMARK   28  A    between atoms: _69  and  _72
REMARK   29  A    between atoms: _72  and  _73
REMARK   30  A    between atoms: _79  and  _81
REMARK   31  A    between atoms: _81  and  _82
REMARK   32  A    between atoms: _85  and  _87
REMARK   33  A    between atoms: _87  and  _88
REMARK   34  A    between atoms: _87  and  _90
REMARK   35  A    between atoms: _93  and  _95
REMARK   36  A    between atoms: _95  and  _96
REMARK   37  A    between atoms: _98  and  _100
REMARK   38  A    between atoms: _100  and  _101
REMARK   39  A    between atoms: _100  and  _103
REMARK   40  A    between atoms: _106  and  _108
REMARK   41  A    between atoms: _108  and  _109
REMARK   42  A    between atoms: _108  and  _111
REMARK   43  A    between atoms: _111  and  _112
REMARK   44  A    between atoms: _118  and  _120
REMARK   45  A    between atoms: _120  and  _121
REMARK   46  A    between atoms: _120  and  _123
REMARK   47  A    between atoms: _126  and  _128
REMARK   48  A    between atoms: _128  and  _129
REMARK   49  A    between atoms: _128  and  _131
REMARK   50  A    between atoms: _131  and  _132
REMARK   51  A    between atoms: _138  and  _140
REMARK   52  A    between atoms: _140  and  _141
REMARK   53  A    between atoms: _140  and  _143
REMARK   54  A    between atoms: _143  and  _144
REMARK   55  A    between atoms: _144  and  _145
REMARK   56  A    between atoms: _147  and  _149
REMARK   57  A    between atoms: _149  and  _150
REMARK   58  A    between atoms: _149  and  _152
REMARK   59  A    between atoms: _152  and  _153
REMARK   60  A    between atoms: _156  and  _158
REMARK   61  A    between atoms: _158  and  _159
REMARK   62  A    between atoms: _158  and  _161
REMARK   63  A    between atoms: _161  and  _162
REMARK   64  A    between atoms: _162  and  _163
REMARK   65  A    between atoms: _166  and  _168
REMARK   66  A    between atoms: _168  and  _169
REMARK   67  A    between atoms: _168  and  _171
REMARK   68  A    between atoms: _171  and  _172
REMARK   69  A    between atoms: _172  and  _173
REMARK   70  A    between atoms: _176  and  _178
REMARK   71  A    between atoms: _178  and  _179
REMARK   72  A    between atoms: _178  and  _181
REMARK   73  A    between atoms: _181  and  _182
REMARK   74  A    between atoms: _187  and  _188
REMARK   75  A    between atoms: _190  and  _192
REMARK   76  A    between atoms: _192  and  _193
REMARK   77  A    between atoms: _192  and  _195
REMARK   78  A    between atoms: _195  and  _196
REMARK   79  A    between atoms: _206  and  _208
REMARK   80  A    between atoms: _208  and  _209
REMARK   81  A    between atoms: _208  and  _211
REMARK   82  A    between atoms: _211  and  _212
REMARK   83  A    between atoms: _215  and  _217
REMARK   84  A    between atoms: _217  and  _218
REMARK   85  A    between atoms: _217  and  _220
REMARK   86  A    between atoms: _220  and  _221
REMARK   87  A    between atoms: _221  and  _222
REMARK   88  A    between atoms: _222  and  _223
REMARK   89  A    between atoms: _232  and  _234
REMARK   90  A    between atoms: _234  and  _235
REMARK   91  A    between atoms: _234  and  _237
REMARK   92  A    between atoms: _237  and  _238
REMARK   93  A    between atoms: _238  and  _239
REMARK   94  A    between atoms: _242  and  _244
REMARK   95  A    between atoms: _244  and  _245
REMARK   96  A    between atoms: _244  and  _247
REMARK   97  A    between atoms: _247  and  _248
REMARK   98  A    between atoms: _251  and  _253
REMARK   99  A    between atoms: _253  and  _254
REMARK  100  A    between atoms: _253  and  _256
REMARK  101  A    between atoms: _256  and  _257
REMARK  102  A    between atoms: _257  and  _258
REMARK  103  A    between atoms: _263  and  _265
REMARK  104  A    between atoms: _265  and  _266
REMARK  105  A    between atoms: _265  and  _268
REMARK  106  A    between atoms: _268  and  _269
REMARK  107  A    between atoms: _272  and  _274
REMARK  108  A    between atoms: _274  and  _275
REMARK  109  A    between atoms: _274  and  _277
REMARK  110  A    between atoms: _277  and  _278
REMARK  111  A    between atoms: _280  and  _282
REMARK  112  A    between atoms: _282  and  _283
REMARK  113  A    between atoms: _282  and  _285
REMARK  114  A    between atoms: _285  and  _286
REMARK  115  A    between atoms: _286  and  _287
REMARK  116  A    between atoms: _287  and  _288
REMARK  117  A    between atoms: _288  and  _289
REMARK  118  A    between atoms: _293  and  _295
REMARK  119  A    between atoms: _295  and  _296
REMARK  120  A    between atoms: _295  and  _298
REMARK  121  A    between atoms: _298  and  _299
REMARK  122  A    between atoms: _302  and  _304
REMARK  123  A    between atoms: _304  and  _305
REMARK  124  A    between atoms: _304  and  _307
REMARK  125  A    between atoms: _307  and  _308
REMARK  126  A    between atoms: _313  and  _315
REMARK  127  A    between atoms: _315  and  _316
REMARK  128  A    between atoms: _315  and  _318
REMARK  129  A    between atoms: _318  and  _319
REMARK  130  A    between atoms: _319  and  _320
REMARK  131  A    between atoms: _325  and  _327
REMARK  132  A    between atoms: _327  and  _328
REMARK  133  A    between atoms: _327  and  _330
REMARK  134  A    between atoms: _330  and  _331
REMARK  135  A    between atoms: _334  and  _336
REMARK  136  A    between atoms: _336  and  _337
REMARK  137  A    between atoms: _336  and  _339
REMARK  138  A    between atoms: _339  and  _340
REMARK  139  A    between atoms: _345  and  _346
REMARK  140  A    between atoms: _348  and  _350
REMARK  141  A    between atoms: _350  and  _351
REMARK  142  A    between atoms: _350  and  _353
REMARK  143  A    between atoms: _353  and  _354
REMARK  144  A    between atoms: _354  and  _355
REMARK  145  A    between atoms: _355  and  _356
REMARK  146  A    between atoms: _365  and  _367
REMARK  147  A    between atoms: _367  and  _368
REMARK  148  A    between atoms: _367  and  _370
REMARK  149  A    between atoms: _370  and  _371
REMARK  150  A    between atoms: _371  and  _372
REMARK  151  A    between atoms: _375  and  _377
REMARK  152  A    between atoms: _377  and  _378
REMARK  153  A    between atoms: _377  and  _380
REMARK  154  A    between atoms: _380  and  _381
REMARK  155  A    between atoms: _383  and  _385
REMARK  156  A    between atoms: _385  and  _386
REMARK  157  A    between atoms: _385  and  _388
REMARK  158  A    between atoms: _388  and  _389
REMARK  159  A    between atoms: _392  and  _394
REMARK  160  A    between atoms: _394  and  _395
REMARK  161  A    between atoms: _394  and  _397
REMARK  162  A    between atoms: _397  and  _398
REMARK  163  A    between atoms: _398  and  _399
REMARK  164  A    between atoms: _399  and  _400
REMARK  165  A    between atoms: _409  and  _411
REMARK  166  A    between atoms: _411  and  _412
REMARK  167  A    between atoms: _411  and  _414
REMARK  168  A    between atoms: _414  and  _415
REMARK  169  A    between atoms: _420  and  _422
REMARK  170  A    between atoms: _422  and  _423
REMARK  171  A    between atoms: _422  and  _425
REMARK  172  A    between atoms: _425  and  _426
REMARK  173  A    between atoms: _429  and  _431
REMARK  174  A    between atoms: _431  and  _432
REMARK  175  A    between atoms: _431  and  _434
REMARK  176  A    between atoms: _434  and  _435
REMARK  177  A    between atoms: _440  and  _441
REMARK  178  A    between atoms: _443  and  _445
REMARK  179  A    between atoms: _445  and  _446
REMARK  180  A    between atoms: _445  and  _448
REMARK  181  A    between atoms: _448  and  _449
REMARK  182  A    between atoms: _452  and  _454
REMARK  183  A    between atoms: _454  and  _455
REMARK  184  A    between atoms: _454  and  _457
REMARK  185  A    between atoms: _457  and  _458
REMARK  186  A    between atoms: _458  and  _459
REMARK  187  A    between atoms: _464  and  _466
REMARK  188  A    between atoms: _466  and  _467
REMARK  189  A    between atoms: _466  and  _469
REMARK  190  A    between atoms: _469  and  _470
REMARK  191  A    between atoms: _470  and  _471
REMARK  192  A    between atoms: _471  and  _472
REMARK  193  A    between atoms: _481  and  _483
REMARK  194  A    between atoms: _483  and  _484
REMARK  195  A    between atoms: _483  and  _486
REMARK  196  A    between atoms: _486  and  _487
REMARK  197  A    between atoms: _487  and  _488
REMARK  198  A    between atoms: _490  and  _492
REMARK  199  A    between atoms: _492  and  _493
REMARK  200  A    between atoms: _492  and  _495
REMARK  201  A    between atoms: _495  and  _496
REMARK  202  A    between atoms: _501  and  _502
REMARK  203  A    between atoms: _504  and  _506
REMARK  204  A    between atoms: _506  and  _507
REMARK  205  A    between atoms: _509  and  _511
REMARK  206  A    between atoms: _511  and  _512
REMARK  207  A    between atoms: _511  and  _514
REMARK  208  A    between atoms: _514  and  _515
REMARK  209  A    between atoms: _515  and  _869
REMARK  210  A    between atoms: _516  and  _518
REMARK  211  A    between atoms: _518  and  _519
REMARK  212  A    between atoms: _518  and  _521
REMARK  213  A    between atoms: _521  and  _522
REMARK  214  A    between atoms: _525  and  _527
REMARK  215  A    between atoms: _527  and  _528
REMARK  216  A    between atoms: _527  and  _530
REMARK  217  A    between atoms: _530  and  _531
REMARK  218  A    between atoms: _531  and  _532
REMARK  219  A    between atoms: _537  and  _539
REMARK  220  A    between atoms: _539  and  _540
REMARK  221  A    between atoms: _539  and  _542
REMARK  222  A    between atoms: _542  and  _543
REMARK  223  A    between atoms: _545  and  _547
REMARK  224  A    between atoms: _547  and  _548
REMARK  225  A    between atoms: _551  and  _553
REMARK  226  A    between atoms: _553  and  _554
REMARK  227  A    between atoms: _553  and  _556
REMARK  228  A    between atoms: _556  and  _557
REMARK  229  A    between atoms: _562  and  _563
REMARK  230  A    between atoms: _565  and  _567
REMARK  231  A    between atoms: _567  and  _568
REMARK  232  A    between atoms: _567  and  _570
REMARK  233  A    between atoms: _570  and  _571
REMARK  234  A    between atoms: _576  and  _577
REMARK  235  A    between atoms: _579  and  _581
REMARK  236  A    between atoms: _581  and  _582
REMARK  237  A    between atoms: _581  and  _584
REMARK  238  A    between atoms: _584  and  _585
REMARK  239  A    between atoms: _588  and  _590
REMARK  240  A    between atoms: _590  and  _591
REMARK  241  A    between atoms: _594  and  _596
REMARK  242  A    between atoms: _596  and  _597
REMARK  243  A    between atoms: _596  and  _599
REMARK  244  A    between atoms: _599  and  _600
REMARK  245  A    between atoms: _610  and  _612
REMARK  246  A    between atoms: _612  and  _613
REMARK  247  A    between atoms: _616  and  _618
REMARK  248  A    between atoms: _618  and  _619
REMARK  249  A    between atoms: _622  and  _624
REMARK  250  A    between atoms: _624  and  _625
REMARK  251  A    between atoms: _624  and  _627
REMARK  252  A    between atoms: _627  and  _628
REMARK  253  A    between atoms: _628  and  _629
REMARK  254  A    between atoms: _634  and  _636
REMARK  255  A    between atoms: _636  and  _637
REMARK  256  A    between atoms: _636  and  _639
REMARK  257  A    between atoms: _639  and  _640
REMARK  258  A    between atoms: _643  and  _645
REMARK  259  A    between atoms: _645  and  _646
REMARK  260  A    between atoms: _645  and  _648
REMARK  261  A    between atoms: _648  and  _649
REMARK  262  A    between atoms: _652  and  _654
REMARK  263  A    between atoms: _654  and  _655
REMARK  264  A    between atoms: _654  and  _657
REMARK  265  A    between atoms: _657  and  _658
REMARK  266  A    between atoms: _658  and  _659
REMARK  267  A    between atoms: _664  and  _666
REMARK  268  A    between atoms: _666  and  _667
REMARK  269  A    between atoms: _666  and  _669
REMARK  270  A    between atoms: _669  and  _670
REMARK  271  A    between atoms: _670  and  _671
REMARK  272  A    between atoms: _671  and  _672
REMARK  273  A    between atoms: _681  and  _683
REMARK  274  A    between atoms: _683  and  _684
REMARK  275  A    between atoms: _683  and  _686
REMARK  276  A    between atoms: _686  and  _687
REMARK  277  A    between atoms: _687  and  _688
REMARK  278  A    between atoms: _688  and  _689
REMARK  279  A    between atoms: _689  and  _690
REMARK  280  A    between atoms: _694  and  _696
REMARK  281  A    between atoms: _696  and  _697
REMARK  282  A    between atoms: _696  and  _699
REMARK  283  A    between atoms: _699  and  _700
REMARK  284  A    between atoms: _710  and  _712
REMARK  285  A    between atoms: _712  and  _713
REMARK  286  A    between atoms: _712  and  _715
REMARK  287  A    between atoms: _715  and  _716
REMARK  288  A    between atoms: _716  and  _717
REMARK  289  A    between atoms: _720  and  _722
REMARK  290  A    between atoms: _722  and  _723
REMARK  291  A    between atoms: _726  and  _728
REMARK  292  A    between atoms: _728  and  _729
REMARK  293  A    between atoms: _732  and  _734
REMARK  294  A    between atoms: _734  and  _735
REMARK  295  A    between atoms: _734  and  _737
REMARK  296  A    between atoms: _737  and  _738
REMARK  297  A    between atoms: _738  and  _739
REMARK  298  A    between atoms: _739  and  _740
REMARK  299  A    between atoms: _749  and  _751
REMARK  300  A    between atoms: _751  and  _752
REMARK  301  A    between atoms: _751  and  _754
REMARK  302  A    between atoms: _754  and  _755
REMARK  303  A    between atoms: _755  and  _756
REMARK  304  A    between atoms: _759  and  _761
REMARK  305  A    between atoms: _761  and  _762
REMARK  306  A    between atoms: _765  and  _767
REMARK  307  A    between atoms: _767  and  _768
REMARK  308  A    between atoms: _767  and  _770
REMARK  309  A    between atoms: _770  and  _771
REMARK  310  A    between atoms: _771  and  _772
REMARK  311  A    between atoms: _775  and  _777
REMARK  312  A    between atoms: _777  and  _778
REMARK  313  A    between atoms: _777  and  _780
REMARK  314  A    between atoms: _780  and  _781
REMARK  315  A    between atoms: _781  and  _782
REMARK  316  A    between atoms: _787  and  _789
REMARK  317  A    between atoms: _789  and  _790
REMARK  318  A    between atoms: _789  and  _792
REMARK  319  A    between atoms: _792  and  _793
REMARK  320  A    between atoms: _803  and  _805
REMARK  321  A    between atoms: _805  and  _806
REMARK  322  A    between atoms: _805  and  _808
REMARK  323  A    between atoms: _808  and  _809
REMARK  324  A    between atoms: _809  and  _810
REMARK  325  A    between atoms: _810  and  _811
REMARK  326  A    between atoms: _820  and  _822
REMARK  327  A    between atoms: _822  and  _823
REMARK  328  A    between atoms: _826  and  _828
REMARK  329  A    between atoms: _828  and  _829
REMARK  330  A    between atoms: _828  and  _831
REMARK  331  A    between atoms: _831  and  _832
REMARK  332  A    between atoms: _837  and  _838
REMARK  333  A    between atoms: _840  and  _842
REMARK  334  A    between atoms: _842  and  _843
REMARK  335  A    between atoms: _842  and  _845
REMARK  336  A    between atoms: _845  and  _846
REMARK  337  A    between atoms: _849  and  _851
REMARK  338  A    between atoms: _851  and  _852
REMARK  339  A    between atoms: _854  and  _856
REMARK  340  A    between atoms: _856  and  _857
REMARK  341  A    between atoms: _856  and  _859
REMARK  342  A    between atoms: _859  and  _860
REMARK  343  A    between atoms: _863  and  _865
REMARK  344  A    between atoms: _865  and  _866
REMARK  345  A    between atoms: _865  and  _868
REMARK  346  A    between atoms: _868  and  _869
REMARK  347  A    between atoms: _870  and  _872
REMARK  348  A    between atoms: _872  and  _873
REMARK  349  A    between atoms: _872  and  _875
REMARK  350  A    between atoms: _878  and  _880
REMARK  351  A    between atoms: _880  and  _881
REMARK  352  A    between atoms: _880  and  _883
REMARK  353  A    between atoms: _883  and  _884
REMARK  354  A    between atoms: _884  and  _885
REMARK  355  A    between atoms: _888  and  _890
REMARK  356  A    between atoms: _890  and  _891
REMARK  357  A    between atoms: _890  and  _893
REMARK  358  A    between atoms: _893  and  _894
REMARK  359  A    between atoms: _904  and  _906
REMARK  360  A    between atoms: _906  and  _907
REMARK  361  A    between atoms: _906  and  _909
REMARK  362  A    between atoms: _909  and  _910
REMARK  363  A    between atoms: _913  and  _915
REMARK  364  A    between atoms: _915  and  _916
REMARK  365  A    between atoms: _915  and  _918
REMARK  366  A    between atoms: _918  and  _919
REMARK  367  A    between atoms: _919  and  _920
REMARK  368  A    between atoms: _920  and  _921
REMARK  369  A    between atoms: _930  and  _932
REMARK  370  A    between atoms: _932  and  _933
REMARK  371  A    between atoms: _932  and  _935
REMARK  372  A    between atoms: _935  and  _936
REMARK  373  A    between atoms: _941  and  _942
REMARK  374  A    between atoms: _944  and  _946
REMARK  375  A    between atoms: _946  and  _947
REMARK  376  A    between atoms: _946  and  _949
REMARK  377  A    between atoms: _949  and  _950
REMARK                            x       y       z     vdW  Elec       q    Type
REMARK                         _______ _______ _______ _____ _____    ______ ____
ROOT
ATOM      1  O   HOH     1      33.240  38.605  36.384  0.00  0.00    +0.000 OA
ENDROOT
TORSDOF 0
REMARK  Name = ../refined-set-2016/1xr9/1xr9_pocket.pdb
REMARK  377 active torsions:
REMARK  status: ('A' for Active; 'I' for Inactive)
REMARK    1  A    between atoms: _1  and  _3
REMARK    2  A    between atoms: _3  and  _4
REMARK    3  A    between atoms: _3  and  _6
REMARK    4  A    between atoms: _6  and  _7
REMARK    5  A    between atoms: _7  and  _8
REMARK    6  A    between atoms: _10  and  _12
REMARK    7  A    between atoms: _12  and  _13
REMARK    8  A    between atoms: _12  and  _15
REMARK    9  A    between atoms: _15  and  _16
REMARK   10  A    between atoms: _16  and  _17
REMARK   11  A    between atoms: _17  and  _18
REMARK   12  A    between atoms: _27  and  _29
REMARK   13  A    between atoms: _29  and  _30
REMARK   14  A    between atoms: _29  and  _32
REMARK   15  A    between atoms: _32  and  _33
REMARK   16  A    between atoms: _38  and  _39
REMARK   17  A    between atoms: _41  and  _43
REMARK   18  A    between atoms: _43  and  _44
REMARK   19  A    between atoms: _43  and  _46
REMARK   20  A    between atoms: _46  and  _47
REMARK   21  A    between atoms: _53  and  _55
REMARK   22  A    between atoms: _55  and  _56
REMARK   23  A    between atoms: _55  and  _58
REMARK   24  A    between atoms: _58  and  _59
REMARK   25  A    between atoms: _64  and  _65
REMARK   26  A    between atoms: _67  and  _69
REMARK   27  A    between atoms: _69  and  _70
REMARK   28  A    between atoms: _69  and  _72
REMARK   29  A    between atoms: _72  and  _73
REMARK   30  A    between atoms: _79  and  _81
REMARK   31  A    between atoms: _81  and  _82
REMARK   32  A    between atoms: _85  and  _87
REMARK   33  A    between atoms: _87  and  _88
REMARK   34  A    between atoms: _87  and  _90
REMARK   35  A    between atoms: _93  and  _95
REMARK   36  A    between atoms: _95  and  _96
REMARK   37  A    between atoms: _98  and  _100
REMARK   38  A    between atoms: _100  and  _101
REMARK   39  A    between atoms: _100  and  _103
REMARK   40  A    between atoms: _106  and  _108
REMARK   41  A    between atoms: _108  and  _109
REMARK   42  A    between atoms: _108  and  _111
REMARK   43  A    between atoms: _111  and  _112
REMARK   44  A    between atoms: _118  and  _120
REMARK   45  A    between atoms: _120  and  _121
REMARK   46  A    between atoms: _120  and  _123
REMARK   47  A    between atoms: _126  and  _128
REMARK   48  A    between atoms: _128  and  _129
REMARK   49  A    between atoms: _128  and  _131
REMARK   50  A    between atoms: _131  and  _132
REMARK   51  A    between atoms: _138  and  _140
REMARK   52  A    between atoms: _140  and  _141
REMARK   53  A    between atoms: _140  and  _143
REMARK   54  A    between atoms: _143  and  _144
REMARK   55  A    between atoms: _144  and  _145
REMARK   56  A    between atoms: _147  and  _149
REMARK   57  A    between atoms: _149  and  _150
REMARK   58  A    between atoms: _149  and  _152
REMARK   59  A    between atoms: _152  and  _153
REMARK   60  A    between atoms: _156  and  _158
REMARK   61  A    between atoms: _158  and  _159
REMARK   62  A    between atoms: _158  and  _161
REMARK   63  A    between atoms: _161  and  _162
REMARK   64  A    between atoms: _162  and  _163
REMARK   65  A    between atoms: _166  and  _168
REMARK   66  A    between atoms: _168  and  _169
REMARK   67  A    between atoms: _168  and  _171
REMARK   68  A    between atoms: _171  and  _172
REMARK   69  A    between atoms: _172  and  _173
REMARK   70  A    between atoms: _176  and  _178
REMARK   71  A    between atoms: _178  and  _179
REMARK   72  A    between atoms: _178  and  _181
REMARK   73  A    between atoms: _181  and  _182
REMARK   74  A    between atoms: _187  and  _188
REMARK   75  A    between atoms: _190  and  _192
REMARK   76  A    between atoms: _192  and  _193
REMARK   77  A    between atoms: _192  and  _195
REMARK   78  A    between atoms: _195  and  _196
REMARK   79  A    between atoms: _206  and  _208
REMARK   80  A    between atoms: _208  and  _209
REMARK   81  A    between atoms: _208  and  _211
REMARK   82  A    between atoms: _211  and  _212
REMARK   83  A    between atoms: _215  and  _217
REMARK   84  A    between atoms: _217  and  _218
REMARK   85  A    between atoms: _217  and  _220
REMARK   86  A    between atoms: _220  and  _221
REMARK   87  A    between atoms: _221  and  _222
REMARK   88  A    between atoms: _222  and  _223
REMARK   89  A    between atoms: _232  and  _234
REMARK   90  A    between atoms: _234  and  _235
REMARK   91  A    between atoms: _234  and  _237
REMARK   92  A    between atoms: _237  and  _238
REMARK   93  A    between atoms: _238  and  _239
REMARK   94  A    between atoms: _242  and  _244
REMARK   95  A    between atoms: _244  and  _245
REMARK   96  A    between atoms: _244  and  _247
REMARK   97  A    between atoms: _247  and  _248
REMARK   98  A    between atoms: _251  and  _253
REMARK   99  A    between atoms: _253  and  _254
REMARK  100  A    between atoms: _253  and  _256
REMARK  101  A    between atoms: _256  and  _257
REMARK  102  A    between atoms: _257  and  _258
REMARK  103  A    between atoms: _263  and  _265
REMARK  104  A    between atoms: _265  and  _266
REMARK  105  A    between atoms: _265  and  _268
REMARK  106  A    between atoms: _268  and  _269
REMARK  107  A    between atoms: _272  and  _274
REMARK  108  A    between atoms: _274  and  _275
REMARK  109  A    between atoms: _274  and  _277
REMARK  110  A    between atoms: _277  and  _278
REMARK  111  A    between atoms: _280  and  _282
REMARK  112  A    between atoms: _282  and  _283
REMARK  113  A    between atoms: _282  and  _285
REMARK  114  A    between atoms: _285  and  _286
REMARK  115  A    between atoms: _286  and  _287
REMARK  116  A    between atoms: _287  and  _288
REMARK  117  A    between atoms: _288  and  _289
REMARK  118  A    between atoms: _293  and  _295
REMARK  119  A    between atoms: _295  and  _296
REMARK  120  A    between atoms: _295  and  _298
REMARK  121  A    between atoms: _298  and  _299
REMARK  122  A    between atoms: _302  and  _304
REMARK  123  A    between atoms: _304  and  _305
REMARK  124  A    between atoms: _304  and  _307
REMARK  125  A    between atoms: _307  and  _308
REMARK  126  A    between atoms: _313  and  _315
REMARK  127  A    between atoms: _315  and  _316
REMARK  128  A    between atoms: _315  and  _318
REMARK  129  A    between atoms: _318  and  _319
REMARK  130  A    between atoms: _319  and  _320
REMARK  131  A    between atoms: _325  and  _327
REMARK  132  A    between atoms: _327  and  _328
REMARK  133  A    between atoms: _327  and  _330
REMARK  134  A    between atoms: _330  and  _331
REMARK  135  A    between atoms: _334  and  _336
REMARK  136  A    between atoms: _336  and  _337
REMARK  137  A    between atoms: _336  and  _339
REMARK  138  A    between atoms: _339  and  _340
REMARK  139  A    between atoms: _345  and  _346
REMARK  140  A    between atoms: _348  and  _350
REMARK  141  A    between atoms: _350  and  _351
REMARK  142  A    between atoms: _350  and  _353
REMARK  143  A    between atoms: _353  and  _354
REMARK  144  A    between atoms: _354  and  _355
REMARK  145  A    between atoms: _355  and  _356
REMARK  146  A    between atoms: _365  and  _367
REMARK  147  A    between atoms: _367  and  _368
REMARK  148  A    between atoms: _367  and  _370
REMARK  149  A    between atoms: _370  and  _371
REMARK  150  A    between atoms: _371  and  _372
REMARK  151  A    between atoms: _375  and  _377
REMARK  152  A    between atoms: _377  and  _378
REMARK  153  A    between atoms: _377  and  _380
REMARK  154  A    between atoms: _380  and  _381
REMARK  155  A    between atoms: _383  and  _385
REMARK  156  A    between atoms: _385  and  _386
REMARK  157  A    between atoms: _385  and  _388
REMARK  158  A    between atoms: _388  and  _389
REMARK  159  A    between atoms: _392  and  _394
REMARK  160  A    between atoms: _394  and  _395
REMARK  161  A    between atoms: _394  and  _397
REMARK  162  A    between atoms: _397  and  _398
REMARK  163  A    between atoms: _398  and  _399
REMARK  164  A    between atoms: _399  and  _400
REMARK  165  A    between atoms: _409  and  _411
REMARK  166  A    between atoms: _411  and  _412
REMARK  167  A    between atoms: _411  and  _414
REMARK  168  A    between atoms: _414  and  _415
REMARK  169  A    between atoms: _420  and  _422
REMARK  170  A    between atoms: _422  and  _423
REMARK  171  A    between atoms: _422  and  _425
REMARK  172  A    between atoms: _425  and  _426
REMARK  173  A    between atoms: _429  and  _431
REMARK  174  A    between atoms: _431  and  _432
REMARK  175  A    between atoms: _431  and  _434
REMARK  176  A    between atoms: _434  and  _435
REMARK  177  A    between atoms: _440  and  _441
REMARK  178  A    between atoms: _443  and  _445
REMARK  179  A    between atoms: _445  and  _446
REMARK  180  A    between atoms: _445  and  _448
REMARK  181  A    between atoms: _448  and  _449
REMARK  182  A    between atoms: _452  and  _454
REMARK  183  A    between atoms: _454  and  _455
REMARK  184  A    between atoms: _454  and  _457
REMARK  185  A    between atoms: _457  and  _458
REMARK  186  A    between atoms: _458  and  _459
REMARK  187  A    between atoms: _464  and  _466
REMARK  188  A    between atoms: _466  and  _467
REMARK  189  A    between atoms: _466  and  _469
REMARK  190  A    between atoms: _469  and  _470
REMARK  191  A    between atoms: _470  and  _471
REMARK  192  A    between atoms: _471  and  _472
REMARK  193  A    between atoms: _481  and  _483
REMARK  194  A    between atoms: _483  and  _484
REMARK  195  A    between atoms: _483  and  _486
REMARK  196  A    between atoms: _486  and  _487
REMARK  197  A    between atoms: _487  and  _488
REMARK  198  A    between atoms: _490  and  _492
REMARK  199  A    between atoms: _492  and  _493
REMARK  200  A    between atoms: _492  and  _495
REMARK  201  A    between atoms: _495  and  _496
REMARK  202  A    between atoms: _501  and  _502
REMARK  203  A    between atoms: _504  and  _506
REMARK  204  A    between atoms: _506  and  _507
REMARK  205  A    between atoms: _509  and  _511
REMARK  206  A    between atoms: _511  and  _512
REMARK  207  A    between atoms: _511  and  _514
REMARK  208  A    between atoms: _514  and  _515
REMARK  209  A    between atoms: _515  and  _869
REMARK  210  A    between atoms: _516  and  _518
REMARK  211  A    between atoms: _518  and  _519
REMARK  212  A    between atoms: _518  and  _521
REMARK  213  A    between atoms: _521  and  _522
REMARK  214  A    between atoms: _525  and  _527
REMARK  215  A    between atoms: _527  and  _528
REMARK  216  A    between atoms: _527  and  _530
REMARK  217  A    between atoms: _530  and  _531
REMARK  218  A    between atoms: _531  and  _532
REMARK  219  A    between atoms: _537  and  _539
REMARK  220  A    between atoms: _539  and  _540
REMARK  221  A    between atoms: _539  and  _542
REMARK  222  A    between atoms: _542  and  _543
REMARK  223  A    between atoms: _545  and  _547
REMARK  224  A    between atoms: _547  and  _548
REMARK  225  A    between atoms: _551  and  _553
REMARK  226  A    between atoms: _553  and  _554
REMARK  227  A    between atoms: _553  and  _556
REMARK  228  A    between atoms: _556  and  _557
REMARK  229  A    between atoms: _562  and  _563
REMARK  230  A    between atoms: _565  and  _567
REMARK  231  A    between atoms: _567  and  _568
REMARK  232  A    between atoms: _567  and  _570
REMARK  233  A    between atoms: _570  and  _571
REMARK  234  A    between atoms: _576  and  _577
REMARK  235  A    between atoms: _579  and  _581
REMARK  236  A    between atoms: _581  and  _582
REMARK  237  A    between atoms: _581  and  _584
REMARK  238  A    between atoms: _584  and  _585
REMARK  239  A    between atoms: _588  and  _590
REMARK  240  A    between atoms: _590  and  _591
REMARK  241  A    between atoms: _594  and  _596
REMARK  242  A    between atoms: _596  and  _597
REMARK  243  A    between atoms: _596  and  _599
REMARK  244  A    between atoms: _599  and  _600
REMARK  245  A    between atoms: _610  and  _612
REMARK  246  A    between atoms: _612  and  _613
REMARK  247  A    between atoms: _616  and  _618
REMARK  248  A    between atoms: _618  and  _619
REMARK  249  A    between atoms: _622  and  _624
REMARK  250  A    between atoms: _624  and  _625
REMARK  251  A    between atoms: _624  and  _627
REMARK  252  A    between atoms: _627  and  _628
REMARK  253  A    between atoms: _628  and  _629
REMARK  254  A    between atoms: _634  and  _636
REMARK  255  A    between atoms: _636  and  _637
REMARK  256  A    between atoms: _636  and  _639
REMARK  257  A    between atoms: _639  and  _640
REMARK  258  A    between atoms: _643  and  _645
REMARK  259  A    between atoms: _645  and  _646
REMARK  260  A    between atoms: _645  and  _648
REMARK  261  A    between atoms: _648  and  _649
REMARK  262  A    between atoms: _652  and  _654
REMARK  263  A    between atoms: _654  and  _655
REMARK  264  A    between atoms: _654  and  _657
REMARK  265  A    between atoms: _657  and  _658
REMARK  266  A    between atoms: _658  and  _659
REMARK  267  A    between atoms: _664  and  _666
REMARK  268  A    between atoms: _666  and  _667
REMARK  269  A    between atoms: _666  and  _669
REMARK  270  A    between atoms: _669  and  _670
REMARK  271  A    between atoms: _670  and  _671
REMARK  272  A    between atoms: _671  and  _672
REMARK  273  A    between atoms: _681  and  _683
REMARK  274  A    between atoms: _683  and  _684
REMARK  275  A    between atoms: _683  and  _686
REMARK  276  A    between atoms: _686  and  _687
REMARK  277  A    between atoms: _687  and  _688
REMARK  278  A    between atoms: _688  and  _689
REMARK  279  A    between atoms: _689  and  _690
REMARK  280  A    between atoms: _694  and  _696
REMARK  281  A    between atoms: _696  and  _697
REMARK  282  A    between atoms: _696  and  _699
REMARK  283  A    between atoms: _699  and  _700
REMARK  284  A    between atoms: _710  and  _712
REMARK  285  A    between atoms: _712  and  _713
REMARK  286  A    between atoms: _712  and  _715
REMARK  287  A    between atoms: _715  and  _716
REMARK  288  A    between atoms: _716  and  _717
REMARK  289  A    between atoms: _720  and  _722
REMARK  290  A    between atoms: _722  and  _723
REMARK  291  A    between atoms: _726  and  _728
REMARK  292  A    between atoms: _728  and  _729
REMARK  293  A    between atoms: _732  and  _734
REMARK  294  A    between atoms: _734  and  _735
REMARK  295  A    between atoms: _734  and  _737
REMARK  296  A    between atoms: _737  and  _738
REMARK  297  A    between atoms: _738  and  _739
REMARK  298  A    between atoms: _739  and  _740
REMARK  299  A    between atoms: _749  and  _751
REMARK  300  A    between atoms: _751  and  _752
REMARK  301  A    between atoms: _751  and  _754
REMARK  302  A    between atoms: _754  and  _755
REMARK  303  A    between atoms: _755  and  _756
REMARK  304  A    between atoms: _759  and  _761
REMARK  305  A    between atoms: _761  and  _762
REMARK  306  A    between atoms: _765  and  _767
REMARK  307  A    between atoms: _767  and  _768
REMARK  308  A    between atoms: _767  and  _770
REMARK  309  A    between atoms: _770  and  _771
REMARK  310  A    between atoms: _771  and  _772
REMARK  311  A    between atoms: _775  and  _777
REMARK  312  A    between atoms: _777  and  _778
REMARK  313  A    between atoms: _777  and  _780
REMARK  314  A    between atoms: _780  and  _781
REMARK  315  A    between atoms: _781  and  _782
REMARK  316  A    between atoms: _787  and  _789
REMARK  317  A    between atoms: _789  and  _790
REMARK  318  A    between atoms: _789  and  _792
REMARK  319  A    between atoms: _792  and  _793
REMARK  320  A    between atoms: _803  and  _805
REMARK  321  A    between atoms: _805  and  _806
REMARK  322  A    between atoms: _805  and  _808
REMARK  323  A    between atoms: _808  and  _809
REMARK  324  A    between atoms: _809  and  _810
REMARK  325  A    between atoms: _810  and  _811
REMARK  326  A    between atoms: _820  and  _822
REMARK  327  A    between atoms: _822  and  _823
REMARK  328  A    between atoms: _826  and  _828
REMARK  329  A    between atoms: _828  and  _829
REMARK  330  A    between atoms: _828  and  _831
REMARK  331  A    between atoms: _831  and  _832
REMARK  332  A    between atoms: _837  and  _838
REMARK  333  A    between atoms: _840  and  _842
REMARK  334  A    between atoms: _842  and  _843
REMARK  335  A    between atoms: _842  and  _845
REMARK  336  A    between atoms: _845  and  _846
REMARK  337  A    between atoms: _849  and  _851
REMARK  338  A    between atoms: _851  and  _852
REMARK  339  A    between atoms: _854  and  _856
REMARK  340  A    between atoms: _856  and  _857
REMARK  341  A    between atoms: _856  and  _859
REMARK  342  A    between atoms: _859  and  _860
REMARK  343  A    between atoms: _863  and  _865
REMARK  344  A    between atoms: _865  and  _866
REMARK  345  A    between atoms: _865  and  _868
REMARK  346  A    between atoms: _868  and  _869
REMARK  347  A    between atoms: _870  and  _872
REMARK  348  A    between atoms: _872  and  _873
REMARK  349  A    between atoms: _872  and  _875
REMARK  350  A    between atoms: _878  and  _880
REMARK  351  A    between atoms: _880  and  _881
REMARK  352  A    between atoms: _880  and  _883
REMARK  353  A    between atoms: _883  and  _884
REMARK  354  A    between atoms: _884  and  _885
REMARK  355  A    between atoms: _888  and  _890
REMARK  356  A    between atoms: _890  and  _891
REMARK  357  A    between atoms: _890  and  _893
REMARK  358  A    between atoms: _893  and  _894
REMARK  359  A    between atoms: _904  and  _906
REMARK  360  A    between atoms: _906  and  _907
REMARK  361  A    between atoms: _906  and  _909
REMARK  362  A    between atoms: _909  and  _910
REMARK  363  A    between atoms: _913  and  _915
REMARK  364  A    between atoms: _915  and  _916
REMARK  365  A    between atoms: _915  and  _918
REMARK  366  A    between atoms: _918  and  _919
REMARK  367  A    between atoms: _919  and  _920
REMARK  368  A    between atoms: _920  and  _921
REMARK  369  A    between atoms: _930  and  _932
REMARK  370  A    between atoms: _932  and  _933
REMARK  371  A    between atoms: _932  and  _935
REMARK  372  A    between atoms: _935  and  _936
REMARK  373  A    between atoms: _941  and  _942
REMARK  374  A    between atoms: _944  and  _946
REMARK  375  A    between atoms: _946  and  _947
REMARK  376  A    between atoms: _946  and  _949
REMARK  377  A    between atoms: _949  and  _950
REMARK                            x       y       z     vdW  Elec       q    Type
REMARK                         _______ _______ _______ _____ _____    ______ ____
ROOT
ATOM      1  O   HOH     1      29.719  31.065  32.266  0.00  0.00    +0.000 OA
ENDROOT
TORSDOF 0
REMARK  Name = ../refined-set-2016/1xr9/1xr9_pocket.pdb
REMARK  377 active torsions:
REMARK  status: ('A' for Active; 'I' for Inactive)
REMARK    1  A    between atoms: _1  and  _3
REMARK    2  A    between atoms: _3  and  _4
REMARK    3  A    between atoms: _3  and  _6
REMARK    4  A    between atoms: _6  and  _7
REMARK    5  A    between atoms: _7  and  _8
REMARK    6  A    between atoms: _10  and  _12
REMARK    7  A    between atoms: _12  and  _13
REMARK    8  A    between atoms: _12  and  _15
REMARK    9  A    between atoms: _15  and  _16
REMARK   10  A    between atoms: _16  and  _17
REMARK   11  A    between atoms: _17  and  _18
REMARK   12  A    between atoms: _27  and  _29
REMARK   13  A    between atoms: _29  and  _30
REMARK   14  A    between atoms: _29  and  _32
REMARK   15  A    between atoms: _32  and  _33
REMARK   16  A    between atoms: _38  and  _39
REMARK   17  A    between atoms: _41  and  _43
REMARK   18  A    between atoms: _43  and  _44
REMARK   19  A    between atoms: _43  and  _46
REMARK   20  A    between atoms: _46  and  _47
REMARK   21  A    between atoms: _53  and  _55
REMARK   22  A    between atoms: _55  and  _56
REMARK   23  A    between atoms: _55  and  _58
REMARK   24  A    between atoms: _58  and  _59
REMARK   25  A    between atoms: _64  and  _65
REMARK   26  A    between atoms: _67  and  _69
REMARK   27  A    between atoms: _69  and  _70
REMARK   28  A    between atoms: _69  and  _72
REMARK   29  A    between atoms: _72  and  _73
REMARK   30  A    between atoms: _79  and  _81
REMARK   31  A    between atoms: _81  and  _82
REMARK   32  A    between atoms: _85  and  _87
REMARK   33  A    between atoms: _87  and  _88
REMARK   34  A    between atoms: _87  and  _90
REMARK   35  A    between atoms: _93  and  _95
REMARK   36  A    between atoms: _95  and  _96
REMARK   37  A    between atoms: _98  and  _100
REMARK   38  A    between atoms: _100  and  _101
REMARK   39  A    between atoms: _100  and  _103
REMARK   40  A    between atoms: _106  and  _108
REMARK   41  A    between atoms: _108  and  _109
REMARK   42  A    between atoms: _108  and  _111
REMARK   43  A    between atoms: _111  and  _112
REMARK   44  A    between atoms: _118  and  _120
REMARK   45  A    between atoms: _120  and  _121
REMARK   46  A    between atoms: _120  and  _123
REMARK   47  A    between atoms: _126  and  _128
REMARK   48  A    between atoms: _128  and  _129
REMARK   49  A    between atoms: _128  and  _131
REMARK   50  A    between atoms: _131  and  _132
REMARK   51  A    between atoms: _138  and  _140
REMARK   52  A    between atoms: _140  and  _141
REMARK   53  A    between atoms: _140  and  _143
REMARK   54  A    between atoms: _143  and  _144
REMARK   55  A    between atoms: _144  and  _145
REMARK   56  A    between atoms: _147  and  _149
REMARK   57  A    between atoms: _149  and  _150
REMARK   58  A    between atoms: _149  and  _152
REMARK   59  A    between atoms: _152  and  _153
REMARK   60  A    between atoms: _156  and  _158
REMARK   61  A    between atoms: _158  and  _159
REMARK   62  A    between atoms: _158  and  _161
REMARK   63  A    between atoms: _161  and  _162
REMARK   64  A    between atoms: _162  and  _163
REMARK   65  A    between atoms: _166  and  _168
REMARK   66  A    between atoms: _168  and  _169
REMARK   67  A    between atoms: _168  and  _171
REMARK   68  A    between atoms: _171  and  _172
REMARK   69  A    between atoms: _172  and  _173
REMARK   70  A    between atoms: _176  and  _178
REMARK   71  A    between atoms: _178  and  _179
REMARK   72  A    between atoms: _178  and  _181
REMARK   73  A    between atoms: _181  and  _182
REMARK   74  A    between atoms: _187  and  _188
REMARK   75  A    between atoms: _190  and  _192
REMARK   76  A    between atoms: _192  and  _193
REMARK   77  A    between atoms: _192  and  _195
REMARK   78  A    between atoms: _195  and  _196
REMARK   79  A    between atoms: _206  and  _208
REMARK   80  A    between atoms: _208  and  _209
REMARK   81  A    between atoms: _208  and  _211
REMARK   82  A    between atoms: _211  and  _212
REMARK   83  A    between atoms: _215  and  _217
REMARK   84  A    between atoms: _217  and  _218
REMARK   85  A    between atoms: _217  and  _220
REMARK   86  A    between atoms: _220  and  _221
REMARK   87  A    between atoms: _221  and  _222
REMARK   88  A    between atoms: _222  and  _223
REMARK   89  A    between atoms: _232  and  _234
REMARK   90  A    between atoms: _234  and  _235
REMARK   91  A    between atoms: _234  and  _237
REMARK   92  A    between atoms: _237  and  _238
REMARK   93  A    between atoms: _238  and  _239
REMARK   94  A    between atoms: _242  and  _244
REMARK   95  A    between atoms: _244  and  _245
REMARK   96  A    between atoms: _244  and  _247
REMARK   97  A    between atoms: _247  and  _248
REMARK   98  A    between atoms: _251  and  _253
REMARK   99  A    between atoms: _253  and  _254
REMARK  100  A    between atoms: _253  and  _256
REMARK  101  A    between atoms: _256  and  _257
REMARK  102  A    between atoms: _257  and  _258
REMARK  103  A    between atoms: _263  and  _265
REMARK  104  A    between atoms: _265  and  _266
REMARK  105  A    between atoms: _265  and  _268
REMARK  106  A    between atoms: _268  and  _269
REMARK  107  A    between atoms: _272  and  _274
REMARK  108  A    between atoms: _274  and  _275
REMARK  109  A    between atoms: _274  and  _277
REMARK  110  A    between atoms: _277  and  _278
REMARK  111  A    between atoms: _280  and  _282
REMARK  112  A    between atoms: _282  and  _283
REMARK  113  A    between atoms: _282  and  _285
REMARK  114  A    between atoms: _285  and  _286
REMARK  115  A    between atoms: _286  and  _287
REMARK  116  A    between atoms: _287  and  _288
REMARK  117  A    between atoms: _288  and  _289
REMARK  118  A    between atoms: _293  and  _295
REMARK  119  A    between atoms: _295  and  _296
REMARK  120  A    between atoms: _295  and  _298
REMARK  121  A    between atoms: _298  and  _299
REMARK  122  A    between atoms: _302  and  _304
REMARK  123  A    between atoms: _304  and  _305
REMARK  124  A    between atoms: _304  and  _307
REMARK  125  A    between atoms: _307  and  _308
REMARK  126  A    between atoms: _313  and  _315
REMARK  127  A    between atoms: _315  and  _316
REMARK  128  A    between atoms: _315  and  _318
REMARK  129  A    between atoms: _318  and  _319
REMARK  130  A    between atoms: _319  and  _320
REMARK  131  A    between atoms: _325  and  _327
REMARK  132  A    between atoms: _327  and  _328
REMARK  133  A    between atoms: _327  and  _330
REMARK  134  A    between atoms: _330  and  _331
REMARK  135  A    between atoms: _334  and  _336
REMARK  136  A    between atoms: _336  and  _337
REMARK  137  A    between atoms: _336  and  _339
REMARK  138  A    between atoms: _339  and  _340
REMARK  139  A    between atoms: _345  and  _346
REMARK  140  A    between atoms: _348  and  _350
REMARK  141  A    between atoms: _350  and  _351
REMARK  142  A    between atoms: _350  and  _353
REMARK  143  A    between atoms: _353  and  _354
REMARK  144  A    between atoms: _354  and  _355
REMARK  145  A    between atoms: _355  and  _356
REMARK  146  A    between atoms: _365  and  _367
REMARK  147  A    between atoms: _367  and  _368
REMARK  148  A    between atoms: _367  and  _370
REMARK  149  A    between atoms: _370  and  _371
REMARK  150  A    between atoms: _371  and  _372
REMARK  151  A    between atoms: _375  and  _377
REMARK  152  A    between atoms: _377  and  _378
REMARK  153  A    between atoms: _377  and  _380
REMARK  154  A    between atoms: _380  and  _381
REMARK  155  A    between atoms: _383  and  _385
REMARK  156  A    between atoms: _385  and  _386
REMARK  157  A    between atoms: _385  and  _388
REMARK  158  A    between atoms: _388  and  _389
REMARK  159  A    between atoms: _392  and  _394
REMARK  160  A    between atoms: _394  and  _395
REMARK  161  A    between atoms: _394  and  _397
REMARK  162  A    between atoms: _397  and  _398
REMARK  163  A    between atoms: _398  and  _399
REMARK  164  A    between atoms: _399  and  _400
REMARK  165  A    between atoms: _409  and  _411
REMARK  166  A    between atoms: _411  and  _412
REMARK  167  A    between atoms: _411  and  _414
REMARK  168  A    between atoms: _414  and  _415
REMARK  169  A    between atoms: _420  and  _422
REMARK  170  A    between atoms: _422  and  _423
REMARK  171  A    between atoms: _422  and  _425
REMARK  172  A    between atoms: _425  and  _426
REMARK  173  A    between atoms: _429  and  _431
REMARK  174  A    between atoms: _431  and  _432
REMARK  175  A    between atoms: _431  and  _434
REMARK  176  A    between atoms: _434  and  _435
REMARK  177  A    between atoms: _440  and  _441
REMARK  178  A    between atoms: _443  and  _445
REMARK  179  A    between atoms: _445  and  _446
REMARK  180  A    between atoms: _445  and  _448
REMARK  181  A    between atoms: _448  and  _449
REMARK  182  A    between atoms: _452  and  _454
REMARK  183  A    between atoms: _454  and  _455
REMARK  184  A    between atoms: _454  and  _457
REMARK  185  A    between atoms: _457  and  _458
REMARK  186  A    between atoms: _458  and  _459
REMARK  187  A    between atoms: _464  and  _466
REMARK  188  A    between atoms: _466  and  _467
REMARK  189  A    between atoms: _466  and  _469
REMARK  190  A    between atoms: _469  and  _470
REMARK  191  A    between atoms: _470  and  _471
REMARK  192  A    between atoms: _471  and  _472
REMARK  193  A    between atoms: _481  and  _483
REMARK  194  A    between atoms: _483  and  _484
REMARK  195  A    between atoms: _483  and  _486
REMARK  196  A    between atoms: _486  and  _487
REMARK  197  A    between atoms: _487  and  _488
REMARK  198  A    between atoms: _490  and  _492
REMARK  199  A    between atoms: _492  and  _493
REMARK  200  A    between atoms: _492  and  _495
REMARK  201  A    between atoms: _495  and  _496
REMARK  202  A    between atoms: _501  and  _502
REMARK  203  A    between atoms: _504  and  _506
REMARK  204  A    between atoms: _506  and  _507
REMARK  205  A    between atoms: _509  and  _511
REMARK  206  A    between atoms: _511  and  _512
REMARK  207  A    between atoms: _511  and  _514
REMARK  208  A    between atoms: _514  and  _515
REMARK  209  A    between atoms: _515  and  _869
REMARK  210  A    between atoms: _516  and  _518
REMARK  211  A    between atoms: _518  and  _519
REMARK  212  A    between atoms: _518  and  _521
REMARK  213  A    between atoms: _521  and  _522
REMARK  214  A    between atoms: _525  and  _527
REMARK  215  A    between atoms: _527  and  _528
REMARK  216  A    between atoms: _527  and  _530
REMARK  217  A    between atoms: _530  and  _531
REMARK  218  A    between atoms: _531  and  _532
REMARK  219  A    between atoms: _537  and  _539
REMARK  220  A    between atoms: _539  and  _540
REMARK  221  A    between atoms: _539  and  _542
REMARK  222  A    between atoms: _542  and  _543
REMARK  223  A    between atoms: _545  and  _547
REMARK  224  A    between atoms: _547  and  _548
REMARK  225  A    between atoms: _551  and  _553
REMARK  226  A    between atoms: _553  and  _554
REMARK  227  A    between atoms: _553  and  _556
REMARK  228  A    between atoms: _556  and  _557
REMARK  229  A    between atoms: _562  and  _563
REMARK  230  A    between atoms: _565  and  _567
REMARK  231  A    between atoms: _567  and  _568
REMARK  232  A    between atoms: _567  and  _570
REMARK  233  A    between atoms: _570  and  _571
REMARK  234  A    between atoms: _576  and  _577
REMARK  235  A    between atoms: _579  and  _581
REMARK  236  A    between atoms: _581  and  _582
REMARK  237  A    between atoms: _581  and  _584
REMARK  238  A    between atoms: _584  and  _585
REMARK  239  A    between atoms: _588  and  _590
REMARK  240  A    between atoms: _590  and  _591
REMARK  241  A    between atoms: _594  and  _596
REMARK  242  A    between atoms: _596  and  _597
REMARK  243  A    between atoms: _596  and  _599
REMARK  244  A    between atoms: _599  and  _600
REMARK  245  A    between atoms: _610  and  _612
REMARK  246  A    between atoms: _612  and  _613
REMARK  247  A    between atoms: _616  and  _618
REMARK  248  A    between atoms: _618  and  _619
REMARK  249  A    between atoms: _622  and  _624
REMARK  250  A    between atoms: _624  and  _625
REMARK  251  A    between atoms: _624  and  _627
REMARK  252  A    between atoms: _627  and  _628
REMARK  253  A    between atoms: _628  and  _629
REMARK  254  A    between atoms: _634  and  _636
REMARK  255  A    between atoms: _636  and  _637
REMARK  256  A    between atoms: _636  and  _639
REMARK  257  A    between atoms: _639  and  _640
REMARK  258  A    between atoms: _643  and  _645
REMARK  259  A    between atoms: _645  and  _646
REMARK  260  A    between atoms: _645  and  _648
REMARK  261  A    between atoms: _648  and  _649
REMARK  262  A    between atoms: _652  and  _654
REMARK  263  A    between atoms: _654  and  _655
REMARK  264  A    between atoms: _654  and  _657
REMARK  265  A    between atoms: _657  and  _658
REMARK  266  A    between atoms: _658  and  _659
REMARK  267  A    between atoms: _664  and  _666
REMARK  268  A    between atoms: _666  and  _667
REMARK  269  A    between atoms: _666  and  _669
REMARK  270  A    between atoms: _669  and  _670
REMARK  271  A    between atoms: _670  and  _671
REMARK  272  A    between atoms: _671  and  _672
REMARK  273  A    between atoms: _681  and  _683
REMARK  274  A    between atoms: _683  and  _684
REMARK  275  A    between atoms: _683  and  _686
REMARK  276  A    between atoms: _686  and  _687
REMARK  277  A    between atoms: _687  and  _688
REMARK  278  A    between atoms: _688  and  _689
REMARK  279  A    between atoms: _689  and  _690
REMARK  280  A    between atoms: _694  and  _696
REMARK  281  A    between atoms: _696  and  _697
REMARK  282  A    between atoms: _696  and  _699
REMARK  283  A    between atoms: _699  and  _700
REMARK  284  A    between atoms: _710  and  _712
REMARK  285  A    between atoms: _712  and  _713
REMARK  286  A    between atoms: _712  and  _715
REMARK  287  A    between atoms: _715  and  _716
REMARK  288  A    between atoms: _716  and  _717
REMARK  289  A    between atoms: _720  and  _722
REMARK  290  A    between atoms: _722  and  _723
REMARK  291  A    between atoms: _726  and  _728
REMARK  292  A    between atoms: _728  and  _729
REMARK  293  A    between atoms: _732  and  _734
REMARK  294  A    between atoms: _734  and  _735
REMARK  295  A    between atoms: _734  and  _737
REMARK  296  A    between atoms: _737  and  _738
REMARK  297  A    between atoms: _738  and  _739
REMARK  298  A    between atoms: _739  and  _740
REMARK  299  A    between atoms: _749  and  _751
REMARK  300  A    between atoms: _751  and  _752
REMARK  301  A    between atoms: _751  and  _754
REMARK  302  A    between atoms: _754  and  _755
REMARK  303  A    between atoms: _755  and  _756
REMARK  304  A    between atoms: _759  and  _761
REMARK  305  A    between atoms: _761  and  _762
REMARK  306  A    between atoms: _765  and  _767
REMARK  307  A    between atoms: _767  and  _768
REMARK  308  A    between atoms: _767  and  _770
REMARK  309  A    between atoms: _770  and  _771
REMARK  310  A    between atoms: _771  and  _772
REMARK  311  A    between atoms: _775  and  _777
REMARK  312  A    between atoms: _777  and  _778
REMARK  313  A    between atoms: _777  and  _780
REMARK  314  A    between atoms: _780  and  _781
REMARK  315  A    between atoms: _781  and  _782
REMARK  316  A    between atoms: _787  and  _789
REMARK  317  A    between atoms: _789  and  _790
REMARK  318  A    between atoms: _789  and  _792
REMARK  319  A    between atoms: _792  and  _793
REMARK  320  A    between atoms: _803  and  _805
REMARK  321  A    between atoms: _805  and  _806
REMARK  322  A    between atoms: _805  and  _808
REMARK  323  A    between atoms: _808  and  _809
REMARK  324  A    between atoms: _809  and  _810
REMARK  325  A    between atoms: _810  and  _811
REMARK  326  A    between atoms: _820  and  _822
REMARK  327  A    between atoms: _822  and  _823
REMARK  328  A    between atoms: _826  and  _828
REMARK  329  A    between atoms: _828  and  _829
REMARK  330  A    between atoms: _828  and  _831
REMARK  331  A    between atoms: _831  and  _832
REMARK  332  A    between atoms: _837  and  _838
REMARK  333  A    between atoms: _840  and  _842
REMARK  334  A    between atoms: _842  and  _843
REMARK  335  A    between atoms: _842  and  _845
REMARK  336  A    between atoms: _845  and  _846
REMARK  337  A    between atoms: _849  and  _851
REMARK  338  A    between atoms: _851  and  _852
REMARK  339  A    between atoms: _854  and  _856
REMARK  340  A    between atoms: _856  and  _857
REMARK  341  A    between atoms: _856  and  _859
REMARK  342  A    between atoms: _859  and  _860
REMARK  343  A    between atoms: _863  and  _865
REMARK  344  A    between atoms: _865  and  _866
REMARK  345  A    between atoms: _865  and  _868
REMARK  346  A    between atoms: _868  and  _869
REMARK  347  A    between atoms: _870  and  _872
REMARK  348  A    between atoms: _872  and  _873
REMARK  349  A    between atoms: _872  and  _875
REMARK  350  A    between atoms: _878  and  _880
REMARK  351  A    between atoms: _880  and  _881
REMARK  352  A    between atoms: _880  and  _883
REMARK  353  A    between atoms: _883  and  _884
REMARK  354  A    between atoms: _884  and  _885
REMARK  355  A    between atoms: _888  and  _890
REMARK  356  A    between atoms: _890  and  _891
REMARK  357  A    between atoms: _890  and  _893
REMARK  358  A    between atoms: _893  and  _894
REMARK  359  A    between atoms: _904  and  _906
REMARK  360  A    between atoms: _906  and  _907
REMARK  361  A    between atoms: _906  and  _909
REMARK  362  A    between atoms: _909  and  _910
REMARK  363  A    between atoms: _913  and  _915
REMARK  364  A    between atoms: _915  and  _916
REMARK  365  A    between atoms: _915  and  _918
REMARK  366  A    between atoms: _918  and  _919
REMARK  367  A    between atoms: _919  and  _920
REMARK  368  A    between atoms: _920  and  _921
REMARK  369  A    between atoms: _930  and  _932
REMARK  370  A    between atoms: _932  and  _933
REMARK  371  A    between atoms: _932  and  _935
REMARK  372  A    between atoms: _935  and  _936
REMARK  373  A    between atoms: _941  and  _942
REMARK  374  A    between atoms: _944  and  _946
REMARK  375  A    between atoms: _946  and  _947
REMARK  376  A    between atoms: _946  and  _949
REMARK  377  A    between atoms: _949  and  _950
REMARK                            x       y       z     vdW  Elec       q    Type
REMARK                         _______ _______ _______ _____ _____    ______ ____
ROOT
ATOM      1  O   HOH     1      27.617  34.986  43.039  0.00  0.00    +0.000 OA
ENDROOT
TORSDOF 0
REMARK  Name = ../refined-set-2016/1xr9/1xr9_pocket.pdb
REMARK  377 active torsions:
REMARK  status: ('A' for Active; 'I' for Inactive)
REMARK    1  A    between atoms: _1  and  _3
REMARK    2  A    between atoms: _3  and  _4
REMARK    3  A    between atoms: _3  and  _6
REMARK    4  A    between atoms: _6  and  _7
REMARK    5  A    between atoms: _7  and  _8
REMARK    6  A    between atoms: _10  and  _12
REMARK    7  A    between atoms: _12  and  _13
REMARK    8  A    between atoms: _12  and  _15
REMARK    9  A    between atoms: _15  and  _16
REMARK   10  A    between atoms: _16  and  _17
REMARK   11  A    between atoms: _17  and  _18
REMARK   12  A    between atoms: _27  and  _29
REMARK   13  A    between atoms: _29  and  _30
REMARK   14  A    between atoms: _29  and  _32
REMARK   15  A    between atoms: _32  and  _33
REMARK   16  A    between atoms: _38  and  _39
REMARK   17  A    between atoms: _41  and  _43
REMARK   18  A    between atoms: _43  and  _44
REMARK   19  A    between atoms: _43  and  _46
REMARK   20  A    between atoms: _46  and  _47
REMARK   21  A    between atoms: _53  and  _55
REMARK   22  A    between atoms: _55  and  _56
REMARK   23  A    between atoms: _55  and  _58
REMARK   24  A    between atoms: _58  and  _59
REMARK   25  A    between atoms: _64  and  _65
REMARK   26  A    between atoms: _67  and  _69
REMARK   27  A    between atoms: _69  and  _70
REMARK   28  A    between atoms: _69  and  _72
REMARK   29  A    between atoms: _72  and  _73
REMARK   30  A    between atoms: _79  and  _81
REMARK   31  A    between atoms: _81  and  _82
REMARK   32  A    between atoms: _85  and  _87
REMARK   33  A    between atoms: _87  and  _88
REMARK   34  A    between atoms: _87  and  _90
REMARK   35  A    between atoms: _93  and  _95
REMARK   36  A    between atoms: _95  and  _96
REMARK   37  A    between atoms: _98  and  _100
REMARK   38  A    between atoms: _100  and  _101
REMARK   39  A    between atoms: _100  and  _103
REMARK   40  A    between atoms: _106  and  _108
REMARK   41  A    between atoms: _108  and  _109
REMARK   42  A    between atoms: _108  and  _111
REMARK   43  A    between atoms: _111  and  _112
REMARK   44  A    between atoms: _118  and  _120
REMARK   45  A    between atoms: _120  and  _121
REMARK   46  A    between atoms: _120  and  _123
REMARK   47  A    between atoms: _126  and  _128
REMARK   48  A    between atoms: _128  and  _129
REMARK   49  A    between atoms: _128  and  _131
REMARK   50  A    between atoms: _131  and  _132
REMARK   51  A    between atoms: _138  and  _140
REMARK   52  A    between atoms: _140  and  _141
REMARK   53  A    between atoms: _140  and  _143
REMARK   54  A    between atoms: _143  and  _144
REMARK   55  A    between atoms: _144  and  _145
REMARK   56  A    between atoms: _147  and  _149
REMARK   57  A    between atoms: _149  and  _150
REMARK   58  A    between atoms: _149  and  _152
REMARK   59  A    between atoms: _152  and  _153
REMARK   60  A    between atoms: _156  and  _158
REMARK   61  A    between atoms: _158  and  _159
REMARK   62  A    between atoms: _158  and  _161
REMARK   63  A    between atoms: _161  and  _162
REMARK   64  A    between atoms: _162  and  _163
REMARK   65  A    between atoms: _166  and  _168
REMARK   66  A    between atoms: _168  and  _169
REMARK   67  A    between atoms: _168  and  _171
REMARK   68  A    between atoms: _171  and  _172
REMARK   69  A    between atoms: _172  and  _173
REMARK   70  A    between atoms: _176  and  _178
REMARK   71  A    between atoms: _178  and  _179
REMARK   72  A    between atoms: _178  and  _181
REMARK   73  A    between atoms: _181  and  _182
REMARK   74  A    between atoms: _187  and  _188
REMARK   75  A    between atoms: _190  and  _192
REMARK   76  A    between atoms: _192  and  _193
REMARK   77  A    between atoms: _192  and  _195
REMARK   78  A    between atoms: _195  and  _196
REMARK   79  A    between atoms: _206  and  _208
REMARK   80  A    between atoms: _208  and  _209
REMARK   81  A    between atoms: _208  and  _211
REMARK   82  A    between atoms: _211  and  _212
REMARK   83  A    between atoms: _215  and  _217
REMARK   84  A    between atoms: _217  and  _218
REMARK   85  A    between atoms: _217  and  _220
REMARK   86  A    between atoms: _220  and  _221
REMARK   87  A    between atoms: _221  and  _222
REMARK   88  A    between atoms: _222  and  _223
REMARK   89  A    between atoms: _232  and  _234
REMARK   90  A    between atoms: _234  and  _235
REMARK   91  A    between atoms: _234  and  _237
REMARK   92  A    between atoms: _237  and  _238
REMARK   93  A    between atoms: _238  and  _239
REMARK   94  A    between atoms: _242  and  _244
REMARK   95  A    between atoms: _244  and  _245
REMARK   96  A    between atoms: _244  and  _247
REMARK   97  A    between atoms: _247  and  _248
REMARK   98  A    between atoms: _251  and  _253
REMARK   99  A    between atoms: _253  and  _254
REMARK  100  A    between atoms: _253  and  _256
REMARK  101  A    between atoms: _256  and  _257
REMARK  102  A    between atoms: _257  and  _258
REMARK  103  A    between atoms: _263  and  _265
REMARK  104  A    between atoms: _265  and  _266
REMARK  105  A    between atoms: _265  and  _268
REMARK  106  A    between atoms: _268  and  _269
REMARK  107  A    between atoms: _272  and  _274
REMARK  108  A    between atoms: _274  and  _275
REMARK  109  A    between atoms: _274  and  _277
REMARK  110  A    between atoms: _277  and  _278
REMARK  111  A    between atoms: _280  and  _282
REMARK  112  A    between atoms: _282  and  _283
REMARK  113  A    between atoms: _282  and  _285
REMARK  114  A    between atoms: _285  and  _286
REMARK  115  A    between atoms: _286  and  _287
REMARK  116  A    between atoms: _287  and  _288
REMARK  117  A    between atoms: _288  and  _289
REMARK  118  A    between atoms: _293  and  _295
REMARK  119  A    between atoms: _295  and  _296
REMARK  120  A    between atoms: _295  and  _298
REMARK  121  A    between atoms: _298  and  _299
REMARK  122  A    between atoms: _302  and  _304
REMARK  123  A    between atoms: _304  and  _305
REMARK  124  A    between atoms: _304  and  _307
REMARK  125  A    between atoms: _307  and  _308
REMARK  126  A    between atoms: _313  and  _315
REMARK  127  A    between atoms: _315  and  _316
REMARK  128  A    between atoms: _315  and  _318
REMARK  129  A    between atoms: _318  and  _319
REMARK  130  A    between atoms: _319  and  _320
REMARK  131  A    between atoms: _325  and  _327
REMARK  132  A    between atoms: _327  and  _328
REMARK  133  A    between atoms: _327  and  _330
REMARK  134  A    between atoms: _330  and  _331
REMARK  135  A    between atoms: _334  and  _336
REMARK  136  A    between atoms: _336  and  _337
REMARK  137  A    between atoms: _336  and  _339
REMARK  138  A    between atoms: _339  and  _340
REMARK  139  A    between atoms: _345  and  _346
REMARK  140  A    between atoms: _348  and  _350
REMARK  141  A    between atoms: _350  and  _351
REMARK  142  A    between atoms: _350  and  _353
REMARK  143  A    between atoms: _353  and  _354
REMARK  144  A    between atoms: _354  and  _355
REMARK  145  A    between atoms: _355  and  _356
REMARK  146  A    between atoms: _365  and  _367
REMARK  147  A    between atoms: _367  and  _368
REMARK  148  A    between atoms: _367  and  _370
REMARK  149  A    between atoms: _370  and  _371
REMARK  150  A    between atoms: _371  and  _372
REMARK  151  A    between atoms: _375  and  _377
REMARK  152  A    between atoms: _377  and  _378
REMARK  153  A    between atoms: _377  and  _380
REMARK  154  A    between atoms: _380  and  _381
REMARK  155  A    between atoms: _383  and  _385
REMARK  156  A    between atoms: _385  and  _386
REMARK  157  A    between atoms: _385  and  _388
REMARK  158  A    between atoms: _388  and  _389
REMARK  159  A    between atoms: _392  and  _394
REMARK  160  A    between atoms: _394  and  _395
REMARK  161  A    between atoms: _394  and  _397
REMARK  162  A    between atoms: _397  and  _398
REMARK  163  A    between atoms: _398  and  _399
REMARK  164  A    between atoms: _399  and  _400
REMARK  165  A    between atoms: _409  and  _411
REMARK  166  A    between atoms: _411  and  _412
REMARK  167  A    between atoms: _411  and  _414
REMARK  168  A    between atoms: _414  and  _415
REMARK  169  A    between atoms: _420  and  _422
REMARK  170  A    between atoms: _422  and  _423
REMARK  171  A    between atoms: _422  and  _425
REMARK  172  A    between atoms: _425  and  _426
REMARK  173  A    between atoms: _429  and  _431
REMARK  174  A    between atoms: _431  and  _432
REMARK  175  A    between atoms: _431  and  _434
REMARK  176  A    between atoms: _434  and  _435
REMARK  177  A    between atoms: _440  and  _441
REMARK  178  A    between atoms: _443  and  _445
REMARK  179  A    between atoms: _445  and  _446
REMARK  180  A    between atoms: _445  and  _448
REMARK  181  A    between atoms: _448  and  _449
REMARK  182  A    between atoms: _452  and  _454
REMARK  183  A    between atoms: _454  and  _455
REMARK  184  A    between atoms: _454  and  _457
REMARK  185  A    between atoms: _457  and  _458
REMARK  186  A    between atoms: _458  and  _459
REMARK  187  A    between atoms: _464  and  _466
REMARK  188  A    between atoms: _466  and  _467
REMARK  189  A    between atoms: _466  and  _469
REMARK  190  A    between atoms: _469  and  _470
REMARK  191  A    between atoms: _470  and  _471
REMARK  192  A    between atoms: _471  and  _472
REMARK  193  A    between atoms: _481  and  _483
REMARK  194  A    between atoms: _483  and  _484
REMARK  195  A    between atoms: _483  and  _486
REMARK  196  A    between atoms: _486  and  _487
REMARK  197  A    between atoms: _487  and  _488
REMARK  198  A    between atoms: _490  and  _492
REMARK  199  A    between atoms: _492  and  _493
REMARK  200  A    between atoms: _492  and  _495
REMARK  201  A    between atoms: _495  and  _496
REMARK  202  A    between atoms: _501  and  _502
REMARK  203  A    between atoms: _504  and  _506
REMARK  204  A    between atoms: _506  and  _507
REMARK  205  A    between atoms: _509  and  _511
REMARK  206  A    between atoms: _511  and  _512
REMARK  207  A    between atoms: _511  and  _514
REMARK  208  A    between atoms: _514  and  _515
REMARK  209  A    between atoms: _515  and  _869
REMARK  210  A    between atoms: _516  and  _518
REMARK  211  A    between atoms: _518  and  _519
REMARK  212  A    between atoms: _518  and  _521
REMARK  213  A    between atoms: _521  and  _522
REMARK  214  A    between atoms: _525  and  _527
REMARK  215  A    between atoms: _527  and  _528
REMARK  216  A    between atoms: _527  and  _530
REMARK  217  A    between atoms: _530  and  _531
REMARK  218  A    between atoms: _531  and  _532
REMARK  219  A    between atoms: _537  and  _539
REMARK  220  A    between atoms: _539  and  _540
REMARK  221  A    between atoms: _539  and  _542
REMARK  222  A    between atoms: _542  and  _543
REMARK  223  A    between atoms: _545  and  _547
REMARK  224  A    between atoms: _547  and  _548
REMARK  225  A    between atoms: _551  and  _553
REMARK  226  A    between atoms: _553  and  _554
REMARK  227  A    between atoms: _553  and  _556
REMARK  228  A    between atoms: _556  and  _557
REMARK  229  A    between atoms: _562  and  _563
REMARK  230  A    between atoms: _565  and  _567
REMARK  231  A    between atoms: _567  and  _568
REMARK  232  A    between atoms: _567  and  _570
REMARK  233  A    between atoms: _570  and  _571
REMARK  234  A    between atoms: _576  and  _577
REMARK  235  A    between atoms: _579  and  _581
REMARK  236  A    between atoms: _581  and  _582
REMARK  237  A    between atoms: _581  and  _584
REMARK  238  A    between atoms: _584  and  _585
REMARK  239  A    between atoms: _588  and  _590
REMARK  240  A    between atoms: _590  and  _591
REMARK  241  A    between atoms: _594  and  _596
REMARK  242  A    between atoms: _596  and  _597
REMARK  243  A    between atoms: _596  and  _599
REMARK  244  A    between atoms: _599  and  _600
REMARK  245  A    between atoms: _610  and  _612
REMARK  246  A    between atoms: _612  and  _613
REMARK  247  A    between atoms: _616  and  _618
REMARK  248  A    between atoms: _618  and  _619
REMARK  249  A    between atoms: _622  and  _624
REMARK  250  A    between atoms: _624  and  _625
REMARK  251  A    between atoms: _624  and  _627
REMARK  252  A    between atoms: _627  and  _628
REMARK  253  A    between atoms: _628  and  _629
REMARK  254  A    between atoms: _634  and  _636
REMARK  255  A    between atoms: _636  and  _637
REMARK  256  A    between atoms: _636  and  _639
REMARK  257  A    between atoms: _639  and  _640
REMARK  258  A    between atoms: _643  and  _645
REMARK  259  A    between atoms: _645  and  _646
REMARK  260  A    between atoms: _645  and  _648
REMARK  261  A    between atoms: _648  and  _649
REMARK  262  A    between atoms: _652  and  _654
REMARK  263  A    between atoms: _654  and  _655
REMARK  264  A    between atoms: _654  and  _657
REMARK  265  A    between atoms: _657  and  _658
REMARK  266  A    between atoms: _658  and  _659
REMARK  267  A    between atoms: _664  and  _666
REMARK  268  A    between atoms: _666  and  _667
REMARK  269  A    between atoms: _666  and  _669
REMARK  270  A    between atoms: _669  and  _670
REMARK  271  A    between atoms: _670  and  _671
REMARK  272  A    between atoms: _671  and  _672
REMARK  273  A    between atoms: _681  and  _683
REMARK  274  A    between atoms: _683  and  _684
REMARK  275  A    between atoms: _683  and  _686
REMARK  276  A    between atoms: _686  and  _687
REMARK  277  A    between atoms: _687  and  _688
REMARK  278  A    between atoms: _688  and  _689
REMARK  279  A    between atoms: _689  and  _690
REMARK  280  A    between atoms: _694  and  _696
REMARK  281  A    between atoms: _696  and  _697
REMARK  282  A    between atoms: _696  and  _699
REMARK  283  A    between atoms: _699  and  _700
REMARK  284  A    between atoms: _710  and  _712
REMARK  285  A    between atoms: _712  and  _713
REMARK  286  A    between atoms: _712  and  _715
REMARK  287  A    between atoms: _715  and  _716
REMARK  288  A    between atoms: _716  and  _717
REMARK  289  A    between atoms: _720  and  _722
REMARK  290  A    between atoms: _722  and  _723
REMARK  291  A    between atoms: _726  and  _728
REMARK  292  A    between atoms: _728  and  _729
REMARK  293  A    between atoms: _732  and  _734
REMARK  294  A    between atoms: _734  and  _735
REMARK  295  A    between atoms: _734  and  _737
REMARK  296  A    between atoms: _737  and  _738
REMARK  297  A    between atoms: _738  and  _739
REMARK  298  A    between atoms: _739  and  _740
REMARK  299  A    between atoms: _749  and  _751
REMARK  300  A    between atoms: _751  and  _752
REMARK  301  A    between atoms: _751  and  _754
REMARK  302  A    between atoms: _754  and  _755
REMARK  303  A    between atoms: _755  and  _756
REMARK  304  A    between atoms: _759  and  _761
REMARK  305  A    between atoms: _761  and  _762
REMARK  306  A    between atoms: _765  and  _767
REMARK  307  A    between atoms: _767  and  _768
REMARK  308  A    between atoms: _767  and  _770
REMARK  309  A    between atoms: _770  and  _771
REMARK  310  A    between atoms: _771  and  _772
REMARK  311  A    between atoms: _775  and  _777
REMARK  312  A    between atoms: _777  and  _778
REMARK  313  A    between atoms: _777  and  _780
REMARK  314  A    between atoms: _780  and  _781
REMARK  315  A    between atoms: _781  and  _782
REMARK  316  A    between atoms: _787  and  _789
REMARK  317  A    between atoms: _789  and  _790
REMARK  318  A    between atoms: _789  and  _792
REMARK  319  A    between atoms: _792  and  _793
REMARK  320  A    between atoms: _803  and  _805
REMARK  321  A    between atoms: _805  and  _806
REMARK  322  A    between atoms: _805  and  _808
REMARK  323  A    between atoms: _808  and  _809
REMARK  324  A    between atoms: _809  and  _810
REMARK  325  A    between atoms: _810  and  _811
REMARK  326  A    between atoms: _820  and  _822
REMARK  327  A    between atoms: _822  and  _823
REMARK  328  A    between atoms: _826  and  _828
REMARK  329  A    between atoms: _828  and  _829
REMARK  330  A    between atoms: _828  and  _831
REMARK  331  A    between atoms: _831  and  _832
REMARK  332  A    between atoms: _837  and  _838
REMARK  333  A    between atoms: _840  and  _842
REMARK  334  A    between atoms: _842  and  _843
REMARK  335  A    between atoms: _842  and  _845
REMARK  336  A    between atoms: _845  and  _846
REMARK  337  A    between atoms: _849  and  _851
REMARK  338  A    between atoms: _851  and  _852
REMARK  339  A    between atoms: _854  and  _856
REMARK  340  A    between atoms: _856  and  _857
REMARK  341  A    between atoms: _856  and  _859
REMARK  342  A    between atoms: _859  and  _860
REMARK  343  A    between atoms: _863  and  _865
REMARK  344  A    between atoms: _865  and  _866
REMARK  345  A    between atoms: _865  and  _868
REMARK  346  A    between atoms: _868  and  _869
REMARK  347  A    between atoms: _870  and  _872
REMARK  348  A    between atoms: _872  and  _873
REMARK  349  A    between atoms: _872  and  _875
REMARK  350  A    between atoms: _878  and  _880
REMARK  351  A    between atoms: _880  and  _881
REMARK  352  A    between atoms: _880  and  _883
REMARK  353  A    between atoms: _883  and  _884
REMARK  354  A    between atoms: _884  and  _885
REMARK  355  A    between atoms: _888  and  _890
REMARK  356  A    between atoms: _890  and  _891
REMARK  357  A    between atoms: _890  and  _893
REMARK  358  A    between atoms: _893  and  _894
REMARK  359  A    between atoms: _904  and  _906
REMARK  360  A    between atoms: _906  and  _907
REMARK  361  A    between atoms: _906  and  _909
REMARK  362  A    between atoms: _909  and  _910
REMARK  363  A    between atoms: _913  and  _915
REMARK  364  A    between atoms: _915  and  _916
REMARK  365  A    between atoms: _915  and  _918
REMARK  366  A    between atoms: _918  and  _919
REMARK  367  A    between atoms: _919  and  _920
REMARK  368  A    between atoms: _920  and  _921
REMARK  369  A    between atoms: _930  and  _932
REMARK  370  A    between atoms: _932  and  _933
REMARK  371  A    between atoms: _932  and  _935
REMARK  372  A    between atoms: _935  and  _936
REMARK  373  A    between atoms: _941  and  _942
REMARK  374  A    between atoms: _944  and  _946
REMARK  375  A    between atoms: _946  and  _947
REMARK  376  A    between atoms: _946  and  _949
REMARK  377  A    between atoms: _949  and  _950
REMARK                            x       y       z     vdW  Elec       q    Type
REMARK                         _______ _______ _______ _____ _____    ______ ____
ROOT
ATOM      1  O   HOH     1      32.183  24.942  40.040  0.00  0.00    +0.000 OA
ENDROOT
TORSDOF 0
REMARK  Name = ../refined-set-2016/1xr9/1xr9_pocket.pdb
REMARK  377 active torsions:
REMARK  status: ('A' for Active; 'I' for Inactive)
REMARK    1  A    between atoms: _1  and  _3
REMARK    2  A    between atoms: _3  and  _4
REMARK    3  A    between atoms: _3  and  _6
REMARK    4  A    between atoms: _6  and  _7
REMARK    5  A    between atoms: _7  and  _8
REMARK    6  A    between atoms: _10  and  _12
REMARK    7  A    between atoms: _12  and  _13
REMARK    8  A    between atoms: _12  and  _15
REMARK    9  A    between atoms: _15  and  _16
REMARK   10  A    between atoms: _16  and  _17
REMARK   11  A    between atoms: _17  and  _18
REMARK   12  A    between atoms: _27  and  _29
REMARK   13  A    between atoms: _29  and  _30
REMARK   14  A    between atoms: _29  and  _32
REMARK   15  A    between atoms: _32  and  _33
REMARK   16  A    between atoms: _38  and  _39
REMARK   17  A    between atoms: _41  and  _43
REMARK   18  A    between atoms: _43  and  _44
REMARK   19  A    between atoms: _43  and  _46
REMARK   20  A    between atoms: _46  and  _47
REMARK   21  A    between atoms: _53  and  _55
REMARK   22  A    between atoms: _55  and  _56
REMARK   23  A    between atoms: _55  and  _58
REMARK   24  A    between atoms: _58  and  _59
REMARK   25  A    between atoms: _64  and  _65
REMARK   26  A    between atoms: _67  and  _69
REMARK   27  A    between atoms: _69  and  _70
REMARK   28  A    between atoms: _69  and  _72
REMARK   29  A    between atoms: _72  and  _73
REMARK   30  A    between atoms: _79  and  _81
REMARK   31  A    between atoms: _81  and  _82
REMARK   32  A    between atoms: _85  and  _87
REMARK   33  A    between atoms: _87  and  _88
REMARK   34  A    between atoms: _87  and  _90
REMARK   35  A    between atoms: _93  and  _95
REMARK   36  A    between atoms: _95  and  _96
REMARK   37  A    between atoms: _98  and  _100
REMARK   38  A    between atoms: _100  and  _101
REMARK   39  A    between atoms: _100  and  _103
REMARK   40  A    between atoms: _106  and  _108
REMARK   41  A    between atoms: _108  and  _109
REMARK   42  A    between atoms: _108  and  _111
REMARK   43  A    between atoms: _111  and  _112
REMARK   44  A    between atoms: _118  and  _120
REMARK   45  A    between atoms: _120  and  _121
REMARK   46  A    between atoms: _120  and  _123
REMARK   47  A    between atoms: _126  and  _128
REMARK   48  A    between atoms: _128  and  _129
REMARK   49  A    between atoms: _128  and  _131
REMARK   50  A    between atoms: _131  and  _132
REMARK   51  A    between atoms: _138  and  _140
REMARK   52  A    between atoms: _140  and  _141
REMARK   53  A    between atoms: _140  and  _143
REMARK   54  A    between atoms: _143  and  _144
REMARK   55  A    between atoms: _144  and  _145
REMARK   56  A    between atoms: _147  and  _149
REMARK   57  A    between atoms: _149  and  _150
REMARK   58  A    between atoms: _149  and  _152
REMARK   59  A    between atoms: _152  and  _153
REMARK   60  A    between atoms: _156  and  _158
REMARK   61  A    between atoms: _158  and  _159
REMARK   62  A    between atoms: _158  and  _161
REMARK   63  A    between atoms: _161  and  _162
REMARK   64  A    between atoms: _162  and  _163
REMARK   65  A    between atoms: _166  and  _168
REMARK   66  A    between atoms: _168  and  _169
REMARK   67  A    between atoms: _168  and  _171
REMARK   68  A    between atoms: _171  and  _172
REMARK   69  A    between atoms: _172  and  _173
REMARK   70  A    between atoms: _176  and  _178
REMARK   71  A    between atoms: _178  and  _179
REMARK   72  A    between atoms: _178  and  _181
REMARK   73  A    between atoms: _181  and  _182
REMARK   74  A    between atoms: _187  and  _188
REMARK   75  A    between atoms: _190  and  _192
REMARK   76  A    between atoms: _192  and  _193
REMARK   77  A    between atoms: _192  and  _195
REMARK   78  A    between atoms: _195  and  _196
REMARK   79  A    between atoms: _206  and  _208
REMARK   80  A    between atoms: _208  and  _209
REMARK   81  A    between atoms: _208  and  _211
REMARK   82  A    between atoms: _211  and  _212
REMARK   83  A    between atoms: _215  and  _217
REMARK   84  A    between atoms: _217  and  _218
REMARK   85  A    between atoms: _217  and  _220
REMARK   86  A    between atoms: _220  and  _221
REMARK   87  A    between atoms: _221  and  _222
REMARK   88  A    between atoms: _222  and  _223
REMARK   89  A    between atoms: _232  and  _234
REMARK   90  A    between atoms: _234  and  _235
REMARK   91  A    between atoms: _234  and  _237
REMARK   92  A    between atoms: _237  and  _238
REMARK   93  A    between atoms: _238  and  _239
REMARK   94  A    between atoms: _242  and  _244
REMARK   95  A    between atoms: _244  and  _245
REMARK   96  A    between atoms: _244  and  _247
REMARK   97  A    between atoms: _247  and  _248
REMARK   98  A    between atoms: _251  and  _253
REMARK   99  A    between atoms: _253  and  _254
REMARK  100  A    between atoms: _253  and  _256
REMARK  101  A    between atoms: _256  and  _257
REMARK  102  A    between atoms: _257  and  _258
REMARK  103  A    between atoms: _263  and  _265
REMARK  104  A    between atoms: _265  and  _266
REMARK  105  A    between atoms: _265  and  _268
REMARK  106  A    between atoms: _268  and  _269
REMARK  107  A    between atoms: _272  and  _274
REMARK  108  A    between atoms: _274  and  _275
REMARK  109  A    between atoms: _274  and  _277
REMARK  110  A    between atoms: _277  and  _278
REMARK  111  A    between atoms: _280  and  _282
REMARK  112  A    between atoms: _282  and  _283
REMARK  113  A    between atoms: _282  and  _285
REMARK  114  A    between atoms: _285  and  _286
REMARK  115  A    between atoms: _286  and  _287
REMARK  116  A    between atoms: _287  and  _288
REMARK  117  A    between atoms: _288  and  _289
REMARK  118  A    between atoms: _293  and  _295
REMARK  119  A    between atoms: _295  and  _296
REMARK  120  A    between atoms: _295  and  _298
REMARK  121  A    between atoms: _298  and  _299
REMARK  122  A    between atoms: _302  and  _304
REMARK  123  A    between atoms: _304  and  _305
REMARK  124  A    between atoms: _304  and  _307
REMARK  125  A    between atoms: _307  and  _308
REMARK  126  A    between atoms: _313  and  _315
REMARK  127  A    between atoms: _315  and  _316
REMARK  128  A    between atoms: _315  and  _318
REMARK  129  A    between atoms: _318  and  _319
REMARK  130  A    between atoms: _319  and  _320
REMARK  131  A    between atoms: _325  and  _327
REMARK  132  A    between atoms: _327  and  _328
REMARK  133  A    between atoms: _327  and  _330
REMARK  134  A    between atoms: _330  and  _331
REMARK  135  A    between atoms: _334  and  _336
REMARK  136  A    between atoms: _336  and  _337
REMARK  137  A    between atoms: _336  and  _339
REMARK  138  A    between atoms: _339  and  _340
REMARK  139  A    between atoms: _345  and  _346
REMARK  140  A    between atoms: _348  and  _350
REMARK  141  A    between atoms: _350  and  _351
REMARK  142  A    between atoms: _350  and  _353
REMARK  143  A    between atoms: _353  and  _354
REMARK  144  A    between atoms: _354  and  _355
REMARK  145  A    between atoms: _355  and  _356
REMARK  146  A    between atoms: _365  and  _367
REMARK  147  A    between atoms: _367  and  _368
REMARK  148  A    between atoms: _367  and  _370
REMARK  149  A    between atoms: _370  and  _371
REMARK  150  A    between atoms: _371  and  _372
REMARK  151  A    between atoms: _375  and  _377
REMARK  152  A    between atoms: _377  and  _378
REMARK  153  A    between atoms: _377  and  _380
REMARK  154  A    between atoms: _380  and  _381
REMARK  155  A    between atoms: _383  and  _385
REMARK  156  A    between atoms: _385  and  _386
REMARK  157  A    between atoms: _385  and  _388
REMARK  158  A    between atoms: _388  and  _389
REMARK  159  A    between atoms: _392  and  _394
REMARK  160  A    between atoms: _394  and  _395
REMARK  161  A    between atoms: _394  and  _397
REMARK  162  A    between atoms: _397  and  _398
REMARK  163  A    between atoms: _398  and  _399
REMARK  164  A    between atoms: _399  and  _400
REMARK  165  A    between atoms: _409  and  _411
REMARK  166  A    between atoms: _411  and  _412
REMARK  167  A    between atoms: _411  and  _414
REMARK  168  A    between atoms: _414  and  _415
REMARK  169  A    between atoms: _420  and  _422
REMARK  170  A    between atoms: _422  and  _423
REMARK  171  A    between atoms: _422  and  _425
REMARK  172  A    between atoms: _425  and  _426
REMARK  173  A    between atoms: _429  and  _431
REMARK  174  A    between atoms: _431  and  _432
REMARK  175  A    between atoms: _431  and  _434
REMARK  176  A    between atoms: _434  and  _435
REMARK  177  A    between atoms: _440  and  _441
REMARK  178  A    between atoms: _443  and  _445
REMARK  179  A    between atoms: _445  and  _446
REMARK  180  A    between atoms: _445  and  _448
REMARK  181  A    between atoms: _448  and  _449
REMARK  182  A    between atoms: _452  and  _454
REMARK  183  A    between atoms: _454  and  _455
REMARK  184  A    between atoms: _454  and  _457
REMARK  185  A    between atoms: _457  and  _458
REMARK  186  A    between atoms: _458  and  _459
REMARK  187  A    between atoms: _464  and  _466
REMARK  188  A    between atoms: _466  and  _467
REMARK  189  A    between atoms: _466  and  _469
REMARK  190  A    between atoms: _469  and  _470
REMARK  191  A    between atoms: _470  and  _471
REMARK  192  A    between atoms: _471  and  _472
REMARK  193  A    between atoms: _481  and  _483
REMARK  194  A    between atoms: _483  and  _484
REMARK  195  A    between atoms: _483  and  _486
REMARK  196  A    between atoms: _486  and  _487
REMARK  197  A    between atoms: _487  and  _488
REMARK  198  A    between atoms: _490  and  _492
REMARK  199  A    between atoms: _492  and  _493
REMARK  200  A    between atoms: _492  and  _495
REMARK  201  A    between atoms: _495  and  _496
REMARK  202  A    between atoms: _501  and  _502
REMARK  203  A    between atoms: _504  and  _506
REMARK  204  A    between atoms: _506  and  _507
REMARK  205  A    between atoms: _509  and  _511
REMARK  206  A    between atoms: _511  and  _512
REMARK  207  A    between atoms: _511  and  _514
REMARK  208  A    between atoms: _514  and  _515
REMARK  209  A    between atoms: _515  and  _869
REMARK  210  A    between atoms: _516  and  _518
REMARK  211  A    between atoms: _518  and  _519
REMARK  212  A    between atoms: _518  and  _521
REMARK  213  A    between atoms: _521  and  _522
REMARK  214  A    between atoms: _525  and  _527
REMARK  215  A    between atoms: _527  and  _528
REMARK  216  A    between atoms: _527  and  _530
REMARK  217  A    between atoms: _530  and  _531
REMARK  218  A    between atoms: _531  and  _532
REMARK  219  A    between atoms: _537  and  _539
REMARK  220  A    between atoms: _539  and  _540
REMARK  221  A    between atoms: _539  and  _542
REMARK  222  A    between atoms: _542  and  _543
REMARK  223  A    between atoms: _545  and  _547
REMARK  224  A    between atoms: _547  and  _548
REMARK  225  A    between atoms: _551  and  _553
REMARK  226  A    between atoms: _553  and  _554
REMARK  227  A    between atoms: _553  and  _556
REMARK  228  A    between atoms: _556  and  _557
REMARK  229  A    between atoms: _562  and  _563
REMARK  230  A    between atoms: _565  and  _567
REMARK  231  A    between atoms: _567  and  _568
REMARK  232  A    between atoms: _567  and  _570
REMARK  233  A    between atoms: _570  and  _571
REMARK  234  A    between atoms: _576  and  _577
REMARK  235  A    between atoms: _579  and  _581
REMARK  236  A    between atoms: _581  and  _582
REMARK  237  A    between atoms: _581  and  _584
REMARK  238  A    between atoms: _584  and  _585
REMARK  239  A    between atoms: _588  and  _590
REMARK  240  A    between atoms: _590  and  _591
REMARK  241  A    between atoms: _594  and  _596
REMARK  242  A    between atoms: _596  and  _597
REMARK  243  A    between atoms: _596  and  _599
REMARK  244  A    between atoms: _599  and  _600
REMARK  245  A    between atoms: _610  and  _612
REMARK  246  A    between atoms: _612  and  _613
REMARK  247  A    between atoms: _616  and  _618
REMARK  248  A    between atoms: _618  and  _619
REMARK  249  A    between atoms: _622  and  _624
REMARK  250  A    between atoms: _624  and  _625
REMARK  251  A    between atoms: _624  and  _627
REMARK  252  A    between atoms: _627  and  _628
REMARK  253  A    between atoms: _628  and  _629
REMARK  254  A    between atoms: _634  and  _636
REMARK  255  A    between atoms: _636  and  _637
REMARK  256  A    between atoms: _636  and  _639
REMARK  257  A    between atoms: _639  and  _640
REMARK  258  A    between atoms: _643  and  _645
REMARK  259  A    between atoms: _645  and  _646
REMARK  260  A    between atoms: _645  and  _648
REMARK  261  A    between atoms: _648  and  _649
REMARK  262  A    between atoms: _652  and  _654
REMARK  263  A    between atoms: _654  and  _655
REMARK  264  A    between atoms: _654  and  _657
REMARK  265  A    between atoms: _657  and  _658
REMARK  266  A    between atoms: _658  and  _659
REMARK  267  A    between atoms: _664  and  _666
REMARK  268  A    between atoms: _666  and  _667
REMARK  269  A    between atoms: _666  and  _669
REMARK  270  A    between atoms: _669  and  _670
REMARK  271  A    between atoms: _670  and  _671
REMARK  272  A    between atoms: _671  and  _672
REMARK  273  A    between atoms: _681  and  _683
REMARK  274  A    between atoms: _683  and  _684
REMARK  275  A    between atoms: _683  and  _686
REMARK  276  A    between atoms: _686  and  _687
REMARK  277  A    between atoms: _687  and  _688
REMARK  278  A    between atoms: _688  and  _689
REMARK  279  A    between atoms: _689  and  _690
REMARK  280  A    between atoms: _694  and  _696
REMARK  281  A    between atoms: _696  and  _697
REMARK  282  A    between atoms: _696  and  _699
REMARK  283  A    between atoms: _699  and  _700
REMARK  284  A    between atoms: _710  and  _712
REMARK  285  A    between atoms: _712  and  _713
REMARK  286  A    between atoms: _712  and  _715
REMARK  287  A    between atoms: _715  and  _716
REMARK  288  A    between atoms: _716  and  _717
REMARK  289  A    between atoms: _720  and  _722
REMARK  290  A    between atoms: _722  and  _723
REMARK  291  A    between atoms: _726  and  _728
REMARK  292  A    between atoms: _728  and  _729
REMARK  293  A    between atoms: _732  and  _734
REMARK  294  A    between atoms: _734  and  _735
REMARK  295  A    between atoms: _734  and  _737
REMARK  296  A    between atoms: _737  and  _738
REMARK  297  A    between atoms: _738  and  _739
REMARK  298  A    between atoms: _739  and  _740
REMARK  299  A    between atoms: _749  and  _751
REMARK  300  A    between atoms: _751  and  _752
REMARK  301  A    between atoms: _751  and  _754
REMARK  302  A    between atoms: _754  and  _755
REMARK  303  A    between atoms: _755  and  _756
REMARK  304  A    between atoms: _759  and  _761
REMARK  305  A    between atoms: _761  and  _762
REMARK  306  A    between atoms: _765  and  _767
REMARK  307  A    between atoms: _767  and  _768
REMARK  308  A    between atoms: _767  and  _770
REMARK  309  A    between atoms: _770  and  _771
REMARK  310  A    between atoms: _771  and  _772
REMARK  311  A    between atoms: _775  and  _777
REMARK  312  A    between atoms: _777  and  _778
REMARK  313  A    between atoms: _777  and  _780
REMARK  314  A    between atoms: _780  and  _781
REMARK  315  A    between atoms: _781  and  _782
REMARK  316  A    between atoms: _787  and  _789
REMARK  317  A    between atoms: _789  and  _790
REMARK  318  A    between atoms: _789  and  _792
REMARK  319  A    between atoms: _792  and  _793
REMARK  320  A    between atoms: _803  and  _805
REMARK  321  A    between atoms: _805  and  _806
REMARK  322  A    between atoms: _805  and  _808
REMARK  323  A    between atoms: _808  and  _809
REMARK  324  A    between atoms: _809  and  _810
REMARK  325  A    between atoms: _810  and  _811
REMARK  326  A    between atoms: _820  and  _822
REMARK  327  A    between atoms: _822  and  _823
REMARK  328  A    between atoms: _826  and  _828
REMARK  329  A    between atoms: _828  and  _829
REMARK  330  A    between atoms: _828  and  _831
REMARK  331  A    between atoms: _831  and  _832
REMARK  332  A    between atoms: _837  and  _838
REMARK  333  A    between atoms: _840  and  _842
REMARK  334  A    between atoms: _842  and  _843
REMARK  335  A    between atoms: _842  and  _845
REMARK  336  A    between atoms: _845  and  _846
REMARK  337  A    between atoms: _849  and  _851
REMARK  338  A    between atoms: _851  and  _852
REMARK  339  A    between atoms: _854  and  _856
REMARK  340  A    between atoms: _856  and  _857
REMARK  341  A    between atoms: _856  and  _859
REMARK  342  A    between atoms: _859  and  _860
REMARK  343  A    between atoms: _863  and  _865
REMARK  344  A    between atoms: _865  and  _866
REMARK  345  A    between atoms: _865  and  _868
REMARK  346  A    between atoms: _868  and  _869
REMARK  347  A    between atoms: _870  and  _872
REMARK  348  A    between atoms: _872  and  _873
REMARK  349  A    between atoms: _872  and  _875
REMARK  350  A    between atoms: _878  and  _880
REMARK  351  A    between atoms: _880  and  _881
REMARK  352  A    between atoms: _880  and  _883
REMARK  353  A    between atoms: _883  and  _884
REMARK  354  A    between atoms: _884  and  _885
REMARK  355  A    between atoms: _888  and  _890
REMARK  356  A    between atoms: _890  and  _891
REMARK  357  A    between atoms: _890  and  _893
REMARK  358  A    between atoms: _893  and  _894
REMARK  359  A    between atoms: _904  and  _906
REMARK  360  A    between atoms: _906  and  _907
REMARK  361  A    between atoms: _906  and  _909
REMARK  362  A    between atoms: _909  and  _910
REMARK  363  A    between atoms: _913  and  _915
REMARK  364  A    between atoms: _915  and  _916
REMARK  365  A    between atoms: _915  and  _918
REMARK  366  A    between atoms: _918  and  _919
REMARK  367  A    between atoms: _919  and  _920
REMARK  368  A    between atoms: _920  and  _921
REMARK  369  A    between atoms: _930  and  _932
REMARK  370  A    between atoms: _932  and  _933
REMARK  371  A    between atoms: _932  and  _935
REMARK  372  A    between atoms: _935  and  _936
REMARK  373  A    between atoms: _941  and  _942
REMARK  374  A    between atoms: _944  and  _946
REMARK  375  A    between atoms: _946  and  _947
REMARK  376  A    between atoms: _946  and  _949
REMARK  377  A    between atoms: _949  and  _950
REMARK                            x       y       z     vdW  Elec       q    Type
REMARK                         _______ _______ _______ _____ _____    ______ ____
ROOT
ATOM      1  O   HOH     1       9.820  23.997  46.011  0.00  0.00    +0.000 OA
ENDROOT
TORSDOF 0
REMARK  Name = ../refined-set-2016/1xr9/1xr9_pocket.pdb
REMARK  377 active torsions:
REMARK  status: ('A' for Active; 'I' for Inactive)
REMARK    1  A    between atoms: _1  and  _3
REMARK    2  A    between atoms: _3  and  _4
REMARK    3  A    between atoms: _3  and  _6
REMARK    4  A    between atoms: _6  and  _7
REMARK    5  A    between atoms: _7  and  _8
REMARK    6  A    between atoms: _10  and  _12
REMARK    7  A    between atoms: _12  and  _13
REMARK    8  A    between atoms: _12  and  _15
REMARK    9  A    between atoms: _15  and  _16
REMARK   10  A    between atoms: _16  and  _17
REMARK   11  A    between atoms: _17  and  _18
REMARK   12  A    between atoms: _27  and  _29
REMARK   13  A    between atoms: _29  and  _30
REMARK   14  A    between atoms: _29  and  _32
REMARK   15  A    between atoms: _32  and  _33
REMARK   16  A    between atoms: _38  and  _39
REMARK   17  A    between atoms: _41  and  _43
REMARK   18  A    between atoms: _43  and  _44
REMARK   19  A    between atoms: _43  and  _46
REMARK   20  A    between atoms: _46  and  _47
REMARK   21  A    between atoms: _53  and  _55
REMARK   22  A    between atoms: _55  and  _56
REMARK   23  A    between atoms: _55  and  _58
REMARK   24  A    between atoms: _58  and  _59
REMARK   25  A    between atoms: _64  and  _65
REMARK   26  A    between atoms: _67  and  _69
REMARK   27  A    between atoms: _69  and  _70
REMARK   28  A    between atoms: _69  and  _72
REMARK   29  A    between atoms: _72  and  _73
REMARK   30  A    between atoms: _79  and  _81
REMARK   31  A    between atoms: _81  and  _82
REMARK   32  A    between atoms: _85  and  _87
REMARK   33  A    between atoms: _87  and  _88
REMARK   34  A    between atoms: _87  and  _90
REMARK   35  A    between atoms: _93  and  _95
REMARK   36  A    between atoms: _95  and  _96
REMARK   37  A    between atoms: _98  and  _100
REMARK   38  A    between atoms: _100  and  _101
REMARK   39  A    between atoms: _100  and  _103
REMARK   40  A    between atoms: _106  and  _108
REMARK   41  A    between atoms: _108  and  _109
REMARK   42  A    between atoms: _108  and  _111
REMARK   43  A    between atoms: _111  and  _112
REMARK   44  A    between atoms: _118  and  _120
REMARK   45  A    between atoms: _120  and  _121
REMARK   46  A    between atoms: _120  and  _123
REMARK   47  A    between atoms: _126  and  _128
REMARK   48  A    between atoms: _128  and  _129
REMARK   49  A    between atoms: _128  and  _131
REMARK   50  A    between atoms: _131  and  _132
REMARK   51  A    between atoms: _138  and  _140
REMARK   52  A    between atoms: _140  and  _141
REMARK   53  A    between atoms: _140  and  _143
REMARK   54  A    between atoms: _143  and  _144
REMARK   55  A    between atoms: _144  and  _145
REMARK   56  A    between atoms: _147  and  _149
REMARK   57  A    between atoms: _149  and  _150
REMARK   58  A    between atoms: _149  and  _152
REMARK   59  A    between atoms: _152  and  _153
REMARK   60  A    between atoms: _156  and  _158
REMARK   61  A    between atoms: _158  and  _159
REMARK   62  A    between atoms: _158  and  _161
REMARK   63  A    between atoms: _161  and  _162
REMARK   64  A    between atoms: _162  and  _163
REMARK   65  A    between atoms: _166  and  _168
REMARK   66  A    between atoms: _168  and  _169
REMARK   67  A    between atoms: _168  and  _171
REMARK   68  A    between atoms: _171  and  _172
REMARK   69  A    between atoms: _172  and  _173
REMARK   70  A    between atoms: _176  and  _178
REMARK   71  A    between atoms: _178  and  _179
REMARK   72  A    between atoms: _178  and  _181
REMARK   73  A    between atoms: _181  and  _182
REMARK   74  A    between atoms: _187  and  _188
REMARK   75  A    between atoms: _190  and  _192
REMARK   76  A    between atoms: _192  and  _193
REMARK   77  A    between atoms: _192  and  _195
REMARK   78  A    between atoms: _195  and  _196
REMARK   79  A    between atoms: _206  and  _208
REMARK   80  A    between atoms: _208  and  _209
REMARK   81  A    between atoms: _208  and  _211
REMARK   82  A    between atoms: _211  and  _212
REMARK   83  A    between atoms: _215  and  _217
REMARK   84  A    between atoms: _217  and  _218
REMARK   85  A    between atoms: _217  and  _220
REMARK   86  A    between atoms: _220  and  _221
REMARK   87  A    between atoms: _221  and  _222
REMARK   88  A    between atoms: _222  and  _223
REMARK   89  A    between atoms: _232  and  _234
REMARK   90  A    between atoms: _234  and  _235
REMARK   91  A    between atoms: _234  and  _237
REMARK   92  A    between atoms: _237  and  _238
REMARK   93  A    between atoms: _238  and  _239
REMARK   94  A    between atoms: _242  and  _244
REMARK   95  A    between atoms: _244  and  _245
REMARK   96  A    between atoms: _244  and  _247
REMARK   97  A    between atoms: _247  and  _248
REMARK   98  A    between atoms: _251  and  _253
REMARK   99  A    between atoms: _253  and  _254
REMARK  100  A    between atoms: _253  and  _256
REMARK  101  A    between atoms: _256  and  _257
REMARK  102  A    between atoms: _257  and  _258
REMARK  103  A    between atoms: _263  and  _265
REMARK  104  A    between atoms: _265  and  _266
REMARK  105  A    between atoms: _265  and  _268
REMARK  106  A    between atoms: _268  and  _269
REMARK  107  A    between atoms: _272  and  _274
REMARK  108  A    between atoms: _274  and  _275
REMARK  109  A    between atoms: _274  and  _277
REMARK  110  A    between atoms: _277  and  _278
REMARK  111  A    between atoms: _280  and  _282
REMARK  112  A    between atoms: _282  and  _283
REMARK  113  A    between atoms: _282  and  _285
REMARK  114  A    between atoms: _285  and  _286
REMARK  115  A    between atoms: _286  and  _287
REMARK  116  A    between atoms: _287  and  _288
REMARK  117  A    between atoms: _288  and  _289
REMARK  118  A    between atoms: _293  and  _295
REMARK  119  A    between atoms: _295  and  _296
REMARK  120  A    between atoms: _295  and  _298
REMARK  121  A    between atoms: _298  and  _299
REMARK  122  A    between atoms: _302  and  _304
REMARK  123  A    between atoms: _304  and  _305
REMARK  124  A    between atoms: _304  and  _307
REMARK  125  A    between atoms: _307  and  _308
REMARK  126  A    between atoms: _313  and  _315
REMARK  127  A    between atoms: _315  and  _316
REMARK  128  A    between atoms: _315  and  _318
REMARK  129  A    between atoms: _318  and  _319
REMARK  130  A    between atoms: _319  and  _320
REMARK  131  A    between atoms: _325  and  _327
REMARK  132  A    between atoms: _327  and  _328
REMARK  133  A    between atoms: _327  and  _330
REMARK  134  A    between atoms: _330  and  _331
REMARK  135  A    between atoms: _334  and  _336
REMARK  136  A    between atoms: _336  and  _337
REMARK  137  A    between atoms: _336  and  _339
REMARK  138  A    between atoms: _339  and  _340
REMARK  139  A    between atoms: _345  and  _346
REMARK  140  A    between atoms: _348  and  _350
REMARK  141  A    between atoms: _350  and  _351
REMARK  142  A    between atoms: _350  and  _353
REMARK  143  A    between atoms: _353  and  _354
REMARK  144  A    between atoms: _354  and  _355
REMARK  145  A    between atoms: _355  and  _356
REMARK  146  A    between atoms: _365  and  _367
REMARK  147  A    between atoms: _367  and  _368
REMARK  148  A    between atoms: _367  and  _370
REMARK  149  A    between atoms: _370  and  _371
REMARK  150  A    between atoms: _371  and  _372
REMARK  151  A    between atoms: _375  and  _377
REMARK  152  A    between atoms: _377  and  _378
REMARK  153  A    between atoms: _377  and  _380
REMARK  154  A    between atoms: _380  and  _381
REMARK  155  A    between atoms: _383  and  _385
REMARK  156  A    between atoms: _385  and  _386
REMARK  157  A    between atoms: _385  and  _388
REMARK  158  A    between atoms: _388  and  _389
REMARK  159  A    between atoms: _392  and  _394
REMARK  160  A    between atoms: _394  and  _395
REMARK  161  A    between atoms: _394  and  _397
REMARK  162  A    between atoms: _397  and  _398
REMARK  163  A    between atoms: _398  and  _399
REMARK  164  A    between atoms: _399  and  _400
REMARK  165  A    between atoms: _409  and  _411
REMARK  166  A    between atoms: _411  and  _412
REMARK  167  A    between atoms: _411  and  _414
REMARK  168  A    between atoms: _414  and  _415
REMARK  169  A    between atoms: _420  and  _422
REMARK  170  A    between atoms: _422  and  _423
REMARK  171  A    between atoms: _422  and  _425
REMARK  172  A    between atoms: _425  and  _426
REMARK  173  A    between atoms: _429  and  _431
REMARK  174  A    between atoms: _431  and  _432
REMARK  175  A    between atoms: _431  and  _434
REMARK  176  A    between atoms: _434  and  _435
REMARK  177  A    between atoms: _440  and  _441
REMARK  178  A    between atoms: _443  and  _445
REMARK  179  A    between atoms: _445  and  _446
REMARK  180  A    between atoms: _445  and  _448
REMARK  181  A    between atoms: _448  and  _449
REMARK  182  A    between atoms: _452  and  _454
REMARK  183  A    between atoms: _454  and  _455
REMARK  184  A    between atoms: _454  and  _457
REMARK  185  A    between atoms: _457  and  _458
REMARK  186  A    between atoms: _458  and  _459
REMARK  187  A    between atoms: _464  and  _466
REMARK  188  A    between atoms: _466  and  _467
REMARK  189  A    between atoms: _466  and  _469
REMARK  190  A    between atoms: _469  and  _470
REMARK  191  A    between atoms: _470  and  _471
REMARK  192  A    between atoms: _471  and  _472
REMARK  193  A    between atoms: _481  and  _483
REMARK  194  A    between atoms: _483  and  _484
REMARK  195  A    between atoms: _483  and  _486
REMARK  196  A    between atoms: _486  and  _487
REMARK  197  A    between atoms: _487  and  _488
REMARK  198  A    between atoms: _490  and  _492
REMARK  199  A    between atoms: _492  and  _493
REMARK  200  A    between atoms: _492  and  _495
REMARK  201  A    between atoms: _495  and  _496
REMARK  202  A    between atoms: _501  and  _502
REMARK  203  A    between atoms: _504  and  _506
REMARK  204  A    between atoms: _506  and  _507
REMARK  205  A    between atoms: _509  and  _511
REMARK  206  A    between atoms: _511  and  _512
REMARK  207  A    between atoms: _511  and  _514
REMARK  208  A    between atoms: _514  and  _515
REMARK  209  A    between atoms: _515  and  _869
REMARK  210  A    between atoms: _516  and  _518
REMARK  211  A    between atoms: _518  and  _519
REMARK  212  A    between atoms: _518  and  _521
REMARK  213  A    between atoms: _521  and  _522
REMARK  214  A    between atoms: _525  and  _527
REMARK  215  A    between atoms: _527  and  _528
REMARK  216  A    between atoms: _527  and  _530
REMARK  217  A    between atoms: _530  and  _531
REMARK  218  A    between atoms: _531  and  _532
REMARK  219  A    between atoms: _537  and  _539
REMARK  220  A    between atoms: _539  and  _540
REMARK  221  A    between atoms: _539  and  _542
REMARK  222  A    between atoms: _542  and  _543
REMARK  223  A    between atoms: _545  and  _547
REMARK  224  A    between atoms: _547  and  _548
REMARK  225  A    between atoms: _551  and  _553
REMARK  226  A    between atoms: _553  and  _554
REMARK  227  A    between atoms: _553  and  _556
REMARK  228  A    between atoms: _556  and  _557
REMARK  229  A    between atoms: _562  and  _563
REMARK  230  A    between atoms: _565  and  _567
REMARK  231  A    between atoms: _567  and  _568
REMARK  232  A    between atoms: _567  and  _570
REMARK  233  A    between atoms: _570  and  _571
REMARK  234  A    between atoms: _576  and  _577
REMARK  235  A    between atoms: _579  and  _581
REMARK  236  A    between atoms: _581  and  _582
REMARK  237  A    between atoms: _581  and  _584
REMARK  238  A    between atoms: _584  and  _585
REMARK  239  A    between atoms: _588  and  _590
REMARK  240  A    between atoms: _590  and  _591
REMARK  241  A    between atoms: _594  and  _596
REMARK  242  A    between atoms: _596  and  _597
REMARK  243  A    between atoms: _596  and  _599
REMARK  244  A    between atoms: _599  and  _600
REMARK  245  A    between atoms: _610  and  _612
REMARK  246  A    between atoms: _612  and  _613
REMARK  247  A    between atoms: _616  and  _618
REMARK  248  A    between atoms: _618  and  _619
REMARK  249  A    between atoms: _622  and  _624
REMARK  250  A    between atoms: _624  and  _625
REMARK  251  A    between atoms: _624  and  _627
REMARK  252  A    between atoms: _627  and  _628
REMARK  253  A    between atoms: _628  and  _629
REMARK  254  A    between atoms: _634  and  _636
REMARK  255  A    between atoms: _636  and  _637
REMARK  256  A    between atoms: _636  and  _639
REMARK  257  A    between atoms: _639  and  _640
REMARK  258  A    between atoms: _643  and  _645
REMARK  259  A    between atoms: _645  and  _646
REMARK  260  A    between atoms: _645  and  _648
REMARK  261  A    between atoms: _648  and  _649
REMARK  262  A    between atoms: _652  and  _654
REMARK  263  A    between atoms: _654  and  _655
REMARK  264  A    between atoms: _654  and  _657
REMARK  265  A    between atoms: _657  and  _658
REMARK  266  A    between atoms: _658  and  _659
REMARK  267  A    between atoms: _664  and  _666
REMARK  268  A    between atoms: _666  and  _667
REMARK  269  A    between atoms: _666  and  _669
REMARK  270  A    between atoms: _669  and  _670
REMARK  271  A    between atoms: _670  and  _671
REMARK  272  A    between atoms: _671  and  _672
REMARK  273  A    between atoms: _681  and  _683
REMARK  274  A    between atoms: _683  and  _684
REMARK  275  A    between atoms: _683  and  _686
REMARK  276  A    between atoms: _686  and  _687
REMARK  277  A    between atoms: _687  and  _688
REMARK  278  A    between atoms: _688  and  _689
REMARK  279  A    between atoms: _689  and  _690
REMARK  280  A    between atoms: _694  and  _696
REMARK  281  A    between atoms: _696  and  _697
REMARK  282  A    between atoms: _696  and  _699
REMARK  283  A    between atoms: _699  and  _700
REMARK  284  A    between atoms: _710  and  _712
REMARK  285  A    between atoms: _712  and  _713
REMARK  286  A    between atoms: _712  and  _715
REMARK  287  A    between atoms: _715  and  _716
REMARK  288  A    between atoms: _716  and  _717
REMARK  289  A    between atoms: _720  and  _722
REMARK  290  A    between atoms: _722  and  _723
REMARK  291  A    between atoms: _726  and  _728
REMARK  292  A    between atoms: _728  and  _729
REMARK  293  A    between atoms: _732  and  _734
REMARK  294  A    between atoms: _734  and  _735
REMARK  295  A    between atoms: _734  and  _737
REMARK  296  A    between atoms: _737  and  _738
REMARK  297  A    between atoms: _738  and  _739
REMARK  298  A    between atoms: _739  and  _740
REMARK  299  A    between atoms: _749  and  _751
REMARK  300  A    between atoms: _751  and  _752
REMARK  301  A    between atoms: _751  and  _754
REMARK  302  A    between atoms: _754  and  _755
REMARK  303  A    between atoms: _755  and  _756
REMARK  304  A    between atoms: _759  and  _761
REMARK  305  A    between atoms: _761  and  _762
REMARK  306  A    between atoms: _765  and  _767
REMARK  307  A    between atoms: _767  and  _768
REMARK  308  A    between atoms: _767  and  _770
REMARK  309  A    between atoms: _770  and  _771
REMARK  310  A    between atoms: _771  and  _772
REMARK  311  A    between atoms: _775  and  _777
REMARK  312  A    between atoms: _777  and  _778
REMARK  313  A    between atoms: _777  and  _780
REMARK  314  A    between atoms: _780  and  _781
REMARK  315  A    between atoms: _781  and  _782
REMARK  316  A    between atoms: _787  and  _789
REMARK  317  A    between atoms: _789  and  _790
REMARK  318  A    between atoms: _789  and  _792
REMARK  319  A    between atoms: _792  and  _793
REMARK  320  A    between atoms: _803  and  _805
REMARK  321  A    between atoms: _805  and  _806
REMARK  322  A    between atoms: _805  and  _808
REMARK  323  A    between atoms: _808  and  _809
REMARK  324  A    between atoms: _809  and  _810
REMARK  325  A    between atoms: _810  and  _811
REMARK  326  A    between atoms: _820  and  _822
REMARK  327  A    between atoms: _822  and  _823
REMARK  328  A    between atoms: _826  and  _828
REMARK  329  A    between atoms: _828  and  _829
REMARK  330  A    between atoms: _828  and  _831
REMARK  331  A    between atoms: _831  and  _832
REMARK  332  A    between atoms: _837  and  _838
REMARK  333  A    between atoms: _840  and  _842
REMARK  334  A    between atoms: _842  and  _843
REMARK  335  A    between atoms: _842  and  _845
REMARK  336  A    between atoms: _845  and  _846
REMARK  337  A    between atoms: _849  and  _851
REMARK  338  A    between atoms: _851  and  _852
REMARK  339  A    between atoms: _854  and  _856
REMARK  340  A    between atoms: _856  and  _857
REMARK  341  A    between atoms: _856  and  _859
REMARK  342  A    between atoms: _859  and  _860
REMARK  343  A    between atoms: _863  and  _865
REMARK  344  A    between atoms: _865  and  _866
REMARK  345  A    between atoms: _865  and  _868
REMARK  346  A    between atoms: _868  and  _869
REMARK  347  A    between atoms: _870  and  _872
REMARK  348  A    between atoms: _872  and  _873
REMARK  349  A    between atoms: _872  and  _875
REMARK  350  A    between atoms: _878  and  _880
REMARK  351  A    between atoms: _880  and  _881
REMARK  352  A    between atoms: _880  and  _883
REMARK  353  A    between atoms: _883  and  _884
REMARK  354  A    between atoms: _884  and  _885
REMARK  355  A    between atoms: _888  and  _890
REMARK  356  A    between atoms: _890  and  _891
REMARK  357  A    between atoms: _890  and  _893
REMARK  358  A    between atoms: _893  and  _894
REMARK  359  A    between atoms: _904  and  _906
REMARK  360  A    between atoms: _906  and  _907
REMARK  361  A    between atoms: _906  and  _909
REMARK  362  A    between atoms: _909  and  _910
REMARK  363  A    between atoms: _913  and  _915
REMARK  364  A    between atoms: _915  and  _916
REMARK  365  A    between atoms: _915  and  _918
REMARK  366  A    between atoms: _918  and  _919
REMARK  367  A    between atoms: _919  and  _920
REMARK  368  A    between atoms: _920  and  _921
REMARK  369  A    between atoms: _930  and  _932
REMARK  370  A    between atoms: _932  and  _933
REMARK  371  A    between atoms: _932  and  _935
REMARK  372  A    between atoms: _935  and  _936
REMARK  373  A    between atoms: _941  and  _942
REMARK  374  A    between atoms: _944  and  _946
REMARK  375  A    between atoms: _946  and  _947
REMARK  376  A    between atoms: _946  and  _949
REMARK  377  A    between atoms: _949  and  _950
REMARK                            x       y       z     vdW  Elec       q    Type
REMARK                         _______ _______ _______ _____ _____    ______ ____
ROOT
ATOM      1  O   HOH     1      36.813  32.457  36.993  0.00  0.00    +0.000 OA
ENDROOT
TORSDOF 0
REMARK  Name = ../refined-set-2016/1xr9/1xr9_pocket.pdb
REMARK  377 active torsions:
REMARK  status: ('A' for Active; 'I' for Inactive)
REMARK    1  A    between atoms: _1  and  _3
REMARK    2  A    between atoms: _3  and  _4
REMARK    3  A    between atoms: _3  and  _6
REMARK    4  A    between atoms: _6  and  _7
REMARK    5  A    between atoms: _7  and  _8
REMARK    6  A    between atoms: _10  and  _12
REMARK    7  A    between atoms: _12  and  _13
REMARK    8  A    between atoms: _12  and  _15
REMARK    9  A    between atoms: _15  and  _16
REMARK   10  A    between atoms: _16  and  _17
REMARK   11  A    between atoms: _17  and  _18
REMARK   12  A    between atoms: _27  and  _29
REMARK   13  A    between atoms: _29  and  _30
REMARK   14  A    between atoms: _29  and  _32
REMARK   15  A    between atoms: _32  and  _33
REMARK   16  A    between atoms: _38  and  _39
REMARK   17  A    between atoms: _41  and  _43
REMARK   18  A    between atoms: _43  and  _44
REMARK   19  A    between atoms: _43  and  _46
REMARK   20  A    between atoms: _46  and  _47
REMARK   21  A    between atoms: _53  and  _55
REMARK   22  A    between atoms: _55  and  _56
REMARK   23  A    between atoms: _55  and  _58
REMARK   24  A    between atoms: _58  and  _59
REMARK   25  A    between atoms: _64  and  _65
REMARK   26  A    between atoms: _67  and  _69
REMARK   27  A    between atoms: _69  and  _70
REMARK   28  A    between atoms: _69  and  _72
REMARK   29  A    between atoms: _72  and  _73
REMARK   30  A    between atoms: _79  and  _81
REMARK   31  A    between atoms: _81  and  _82
REMARK   32  A    between atoms: _85  and  _87
REMARK   33  A    between atoms: _87  and  _88
REMARK   34  A    between atoms: _87  and  _90
REMARK   35  A    between atoms: _93  and  _95
REMARK   36  A    between atoms: _95  and  _96
REMARK   37  A    between atoms: _98  and  _100
REMARK   38  A    between atoms: _100  and  _101
REMARK   39  A    between atoms: _100  and  _103
REMARK   40  A    between atoms: _106  and  _108
REMARK   41  A    between atoms: _108  and  _109
REMARK   42  A    between atoms: _108  and  _111
REMARK   43  A    between atoms: _111  and  _112
REMARK   44  A    between atoms: _118  and  _120
REMARK   45  A    between atoms: _120  and  _121
REMARK   46  A    between atoms: _120  and  _123
REMARK   47  A    between atoms: _126  and  _128
REMARK   48  A    between atoms: _128  and  _129
REMARK   49  A    between atoms: _128  and  _131
REMARK   50  A    between atoms: _131  and  _132
REMARK   51  A    between atoms: _138  and  _140
REMARK   52  A    between atoms: _140  and  _141
REMARK   53  A    between atoms: _140  and  _143
REMARK   54  A    between atoms: _143  and  _144
REMARK   55  A    between atoms: _144  and  _145
REMARK   56  A    between atoms: _147  and  _149
REMARK   57  A    between atoms: _149  and  _150
REMARK   58  A    between atoms: _149  and  _152
REMARK   59  A    between atoms: _152  and  _153
REMARK   60  A    between atoms: _156  and  _158
REMARK   61  A    between atoms: _158  and  _159
REMARK   62  A    between atoms: _158  and  _161
REMARK   63  A    between atoms: _161  and  _162
REMARK   64  A    between atoms: _162  and  _163
REMARK   65  A    between atoms: _166  and  _168
REMARK   66  A    between atoms: _168  and  _169
REMARK   67  A    between atoms: _168  and  _171
REMARK   68  A    between atoms: _171  and  _172
REMARK   69  A    between atoms: _172  and  _173
REMARK   70  A    between atoms: _176  and  _178
REMARK   71  A    between atoms: _178  and  _179
REMARK   72  A    between atoms: _178  and  _181
REMARK   73  A    between atoms: _181  and  _182
REMARK   74  A    between atoms: _187  and  _188
REMARK   75  A    between atoms: _190  and  _192
REMARK   76  A    between atoms: _192  and  _193
REMARK   77  A    between atoms: _192  and  _195
REMARK   78  A    between atoms: _195  and  _196
REMARK   79  A    between atoms: _206  and  _208
REMARK   80  A    between atoms: _208  and  _209
REMARK   81  A    between atoms: _208  and  _211
REMARK   82  A    between atoms: _211  and  _212
REMARK   83  A    between atoms: _215  and  _217
REMARK   84  A    between atoms: _217  and  _218
REMARK   85  A    between atoms: _217  and  _220
REMARK   86  A    between atoms: _220  and  _221
REMARK   87  A    between atoms: _221  and  _222
REMARK   88  A    between atoms: _222  and  _223
REMARK   89  A    between atoms: _232  and  _234
REMARK   90  A    between atoms: _234  and  _235
REMARK   91  A    between atoms: _234  and  _237
REMARK   92  A    between atoms: _237  and  _238
REMARK   93  A    between atoms: _238  and  _239
REMARK   94  A    between atoms: _242  and  _244
REMARK   95  A    between atoms: _244  and  _245
REMARK   96  A    between atoms: _244  and  _247
REMARK   97  A    between atoms: _247  and  _248
REMARK   98  A    between atoms: _251  and  _253
REMARK   99  A    between atoms: _253  and  _254
REMARK  100  A    between atoms: _253  and  _256
REMARK  101  A    between atoms: _256  and  _257
REMARK  102  A    between atoms: _257  and  _258
REMARK  103  A    between atoms: _263  and  _265
REMARK  104  A    between atoms: _265  and  _266
REMARK  105  A    between atoms: _265  and  _268
REMARK  106  A    between atoms: _268  and  _269
REMARK  107  A    between atoms: _272  and  _274
REMARK  108  A    between atoms: _274  and  _275
REMARK  109  A    between atoms: _274  and  _277
REMARK  110  A    between atoms: _277  and  _278
REMARK  111  A    between atoms: _280  and  _282
REMARK  112  A    between atoms: _282  and  _283
REMARK  113  A    between atoms: _282  and  _285
REMARK  114  A    between atoms: _285  and  _286
REMARK  115  A    between atoms: _286  and  _287
REMARK  116  A    between atoms: _287  and  _288
REMARK  117  A    between atoms: _288  and  _289
REMARK  118  A    between atoms: _293  and  _295
REMARK  119  A    between atoms: _295  and  _296
REMARK  120  A    between atoms: _295  and  _298
REMARK  121  A    between atoms: _298  and  _299
REMARK  122  A    between atoms: _302  and  _304
REMARK  123  A    between atoms: _304  and  _305
REMARK  124  A    between atoms: _304  and  _307
REMARK  125  A    between atoms: _307  and  _308
REMARK  126  A    between atoms: _313  and  _315
REMARK  127  A    between atoms: _315  and  _316
REMARK  128  A    between atoms: _315  and  _318
REMARK  129  A    between atoms: _318  and  _319
REMARK  130  A    between atoms: _319  and  _320
REMARK  131  A    between atoms: _325  and  _327
REMARK  132  A    between atoms: _327  and  _328
REMARK  133  A    between atoms: _327  and  _330
REMARK  134  A    between atoms: _330  and  _331
REMARK  135  A    between atoms: _334  and  _336
REMARK  136  A    between atoms: _336  and  _337
REMARK  137  A    between atoms: _336  and  _339
REMARK  138  A    between atoms: _339  and  _340
REMARK  139  A    between atoms: _345  and  _346
REMARK  140  A    between atoms: _348  and  _350
REMARK  141  A    between atoms: _350  and  _351
REMARK  142  A    between atoms: _350  and  _353
REMARK  143  A    between atoms: _353  and  _354
REMARK  144  A    between atoms: _354  and  _355
REMARK  145  A    between atoms: _355  and  _356
REMARK  146  A    between atoms: _365  and  _367
REMARK  147  A    between atoms: _367  and  _368
REMARK  148  A    between atoms: _367  and  _370
REMARK  149  A    between atoms: _370  and  _371
REMARK  150  A    between atoms: _371  and  _372
REMARK  151  A    between atoms: _375  and  _377
REMARK  152  A    between atoms: _377  and  _378
REMARK  153  A    between atoms: _377  and  _380
REMARK  154  A    between atoms: _380  and  _381
REMARK  155  A    between atoms: _383  and  _385
REMARK  156  A    between atoms: _385  and  _386
REMARK  157  A    between atoms: _385  and  _388
REMARK  158  A    between atoms: _388  and  _389
REMARK  159  A    between atoms: _392  and  _394
REMARK  160  A    between atoms: _394  and  _395
REMARK  161  A    between atoms: _394  and  _397
REMARK  162  A    between atoms: _397  and  _398
REMARK  163  A    between atoms: _398  and  _399
REMARK  164  A    between atoms: _399  and  _400
REMARK  165  A    between atoms: _409  and  _411
REMARK  166  A    between atoms: _411  and  _412
REMARK  167  A    between atoms: _411  and  _414
REMARK  168  A    between atoms: _414  and  _415
REMARK  169  A    between atoms: _420  and  _422
REMARK  170  A    between atoms: _422  and  _423
REMARK  171  A    between atoms: _422  and  _425
REMARK  172  A    between atoms: _425  and  _426
REMARK  173  A    between atoms: _429  and  _431
REMARK  174  A    between atoms: _431  and  _432
REMARK  175  A    between atoms: _431  and  _434
REMARK  176  A    between atoms: _434  and  _435
REMARK  177  A    between atoms: _440  and  _441
REMARK  178  A    between atoms: _443  and  _445
REMARK  179  A    between atoms: _445  and  _446
REMARK  180  A    between atoms: _445  and  _448
REMARK  181  A    between atoms: _448  and  _449
REMARK  182  A    between atoms: _452  and  _454
REMARK  183  A    between atoms: _454  and  _455
REMARK  184  A    between atoms: _454  and  _457
REMARK  185  A    between atoms: _457  and  _458
REMARK  186  A    between atoms: _458  and  _459
REMARK  187  A    between atoms: _464  and  _466
REMARK  188  A    between atoms: _466  and  _467
REMARK  189  A    between atoms: _466  and  _469
REMARK  190  A    between atoms: _469  and  _470
REMARK  191  A    between atoms: _470  and  _471
REMARK  192  A    between atoms: _471  and  _472
REMARK  193  A    between atoms: _481  and  _483
REMARK  194  A    between atoms: _483  and  _484
REMARK  195  A    between atoms: _483  and  _486
REMARK  196  A    between atoms: _486  and  _487
REMARK  197  A    between atoms: _487  and  _488
REMARK  198  A    between atoms: _490  and  _492
REMARK  199  A    between atoms: _492  and  _493
REMARK  200  A    between atoms: _492  and  _495
REMARK  201  A    between atoms: _495  and  _496
REMARK  202  A    between atoms: _501  and  _502
REMARK  203  A    between atoms: _504  and  _506
REMARK  204  A    between atoms: _506  and  _507
REMARK  205  A    between atoms: _509  and  _511
REMARK  206  A    between atoms: _511  and  _512
REMARK  207  A    between atoms: _511  and  _514
REMARK  208  A    between atoms: _514  and  _515
REMARK  209  A    between atoms: _515  and  _869
REMARK  210  A    between atoms: _516  and  _518
REMARK  211  A    between atoms: _518  and  _519
REMARK  212  A    between atoms: _518  and  _521
REMARK  213  A    between atoms: _521  and  _522
REMARK  214  A    between atoms: _525  and  _527
REMARK  215  A    between atoms: _527  and  _528
REMARK  216  A    between atoms: _527  and  _530
REMARK  217  A    between atoms: _530  and  _531
REMARK  218  A    between atoms: _531  and  _532
REMARK  219  A    between atoms: _537  and  _539
REMARK  220  A    between atoms: _539  and  _540
REMARK  221  A    between atoms: _539  and  _542
REMARK  222  A    between atoms: _542  and  _543
REMARK  223  A    between atoms: _545  and  _547
REMARK  224  A    between atoms: _547  and  _548
REMARK  225  A    between atoms: _551  and  _553
REMARK  226  A    between atoms: _553  and  _554
REMARK  227  A    between atoms: _553  and  _556
REMARK  228  A    between atoms: _556  and  _557
REMARK  229  A    between atoms: _562  and  _563
REMARK  230  A    between atoms: _565  and  _567
REMARK  231  A    between atoms: _567  and  _568
REMARK  232  A    between atoms: _567  and  _570
REMARK  233  A    between atoms: _570  and  _571
REMARK  234  A    between atoms: _576  and  _577
REMARK  235  A    between atoms: _579  and  _581
REMARK  236  A    between atoms: _581  and  _582
REMARK  237  A    between atoms: _581  and  _584
REMARK  238  A    between atoms: _584  and  _585
REMARK  239  A    between atoms: _588  and  _590
REMARK  240  A    between atoms: _590  and  _591
REMARK  241  A    between atoms: _594  and  _596
REMARK  242  A    between atoms: _596  and  _597
REMARK  243  A    between atoms: _596  and  _599
REMARK  244  A    between atoms: _599  and  _600
REMARK  245  A    between atoms: _610  and  _612
REMARK  246  A    between atoms: _612  and  _613
REMARK  247  A    between atoms: _616  and  _618
REMARK  248  A    between atoms: _618  and  _619
REMARK  249  A    between atoms: _622  and  _624
REMARK  250  A    between atoms: _624  and  _625
REMARK  251  A    between atoms: _624  and  _627
REMARK  252  A    between atoms: _627  and  _628
REMARK  253  A    between atoms: _628  and  _629
REMARK  254  A    between atoms: _634  and  _636
REMARK  255  A    between atoms: _636  and  _637
REMARK  256  A    between atoms: _636  and  _639
REMARK  257  A    between atoms: _639  and  _640
REMARK  258  A    between atoms: _643  and  _645
REMARK  259  A    between atoms: _645  and  _646
REMARK  260  A    between atoms: _645  and  _648
REMARK  261  A    between atoms: _648  and  _649
REMARK  262  A    between atoms: _652  and  _654
REMARK  263  A    between atoms: _654  and  _655
REMARK  264  A    between atoms: _654  and  _657
REMARK  265  A    between atoms: _657  and  _658
REMARK  266  A    between atoms: _658  and  _659
REMARK  267  A    between atoms: _664  and  _666
REMARK  268  A    between atoms: _666  and  _667
REMARK  269  A    between atoms: _666  and  _669
REMARK  270  A    between atoms: _669  and  _670
REMARK  271  A    between atoms: _670  and  _671
REMARK  272  A    between atoms: _671  and  _672
REMARK  273  A    between atoms: _681  and  _683
REMARK  274  A    between atoms: _683  and  _684
REMARK  275  A    between atoms: _683  and  _686
REMARK  276  A    between atoms: _686  and  _687
REMARK  277  A    between atoms: _687  and  _688
REMARK  278  A    between atoms: _688  and  _689
REMARK  279  A    between atoms: _689  and  _690
REMARK  280  A    between atoms: _694  and  _696
REMARK  281  A    between atoms: _696  and  _697
REMARK  282  A    between atoms: _696  and  _699
REMARK  283  A    between atoms: _699  and  _700
REMARK  284  A    between atoms: _710  and  _712
REMARK  285  A    between atoms: _712  and  _713
REMARK  286  A    between atoms: _712  and  _715
REMARK  287  A    between atoms: _715  and  _716
REMARK  288  A    between atoms: _716  and  _717
REMARK  289  A    between atoms: _720  and  _722
REMARK  290  A    between atoms: _722  and  _723
REMARK  291  A    between atoms: _726  and  _728
REMARK  292  A    between atoms: _728  and  _729
REMARK  293  A    between atoms: _732  and  _734
REMARK  294  A    between atoms: _734  and  _735
REMARK  295  A    between atoms: _734  and  _737
REMARK  296  A    between atoms: _737  and  _738
REMARK  297  A    between atoms: _738  and  _739
REMARK  298  A    between atoms: _739  and  _740
REMARK  299  A    between atoms: _749  and  _751
REMARK  300  A    between atoms: _751  and  _752
REMARK  301  A    between atoms: _751  and  _754
REMARK  302  A    between atoms: _754  and  _755
REMARK  303  A    between atoms: _755  and  _756
REMARK  304  A    between atoms: _759  and  _761
REMARK  305  A    between atoms: _761  and  _762
REMARK  306  A    between atoms: _765  and  _767
REMARK  307  A    between atoms: _767  and  _768
REMARK  308  A    between atoms: _767  and  _770
REMARK  309  A    between atoms: _770  and  _771
REMARK  310  A    between atoms: _771  and  _772
REMARK  311  A    between atoms: _775  and  _777
REMARK  312  A    between atoms: _777  and  _778
REMARK  313  A    between atoms: _777  and  _780
REMARK  314  A    between atoms: _780  and  _781
REMARK  315  A    between atoms: _781  and  _782
REMARK  316  A    between atoms: _787  and  _789
REMARK  317  A    between atoms: _789  and  _790
REMARK  318  A    between atoms: _789  and  _792
REMARK  319  A    between atoms: _792  and  _793
REMARK  320  A    between atoms: _803  and  _805
REMARK  321  A    between atoms: _805  and  _806
REMARK  322  A    between atoms: _805  and  _808
REMARK  323  A    between atoms: _808  and  _809
REMARK  324  A    between atoms: _809  and  _810
REMARK  325  A    between atoms: _810  and  _811
REMARK  326  A    between atoms: _820  and  _822
REMARK  327  A    between atoms: _822  and  _823
REMARK  328  A    between atoms: _826  and  _828
REMARK  329  A    between atoms: _828  and  _829
REMARK  330  A    between atoms: _828  and  _831
REMARK  331  A    between atoms: _831  and  _832
REMARK  332  A    between atoms: _837  and  _838
REMARK  333  A    between atoms: _840  and  _842
REMARK  334  A    between atoms: _842  and  _843
REMARK  335  A    between atoms: _842  and  _845
REMARK  336  A    between atoms: _845  and  _846
REMARK  337  A    between atoms: _849  and  _851
REMARK  338  A    between atoms: _851  and  _852
REMARK  339  A    between atoms: _854  and  _856
REMARK  340  A    between atoms: _856  and  _857
REMARK  341  A    between atoms: _856  and  _859
REMARK  342  A    between atoms: _859  and  _860
REMARK  343  A    between atoms: _863  and  _865
REMARK  344  A    between atoms: _865  and  _866
REMARK  345  A    between atoms: _865  and  _868
REMARK  346  A    between atoms: _868  and  _869
REMARK  347  A    between atoms: _870  and  _872
REMARK  348  A    between atoms: _872  and  _873
REMARK  349  A    between atoms: _872  and  _875
REMARK  350  A    between atoms: _878  and  _880
REMARK  351  A    between atoms: _880  and  _881
REMARK  352  A    between atoms: _880  and  _883
REMARK  353  A    between atoms: _883  and  _884
REMARK  354  A    between atoms: _884  and  _885
REMARK  355  A    between atoms: _888  and  _890
REMARK  356  A    between atoms: _890  and  _891
REMARK  357  A    between atoms: _890  and  _893
REMARK  358  A    between atoms: _893  and  _894
REMARK  359  A    between atoms: _904  and  _906
REMARK  360  A    between atoms: _906  and  _907
REMARK  361  A    between atoms: _906  and  _909
REMARK  362  A    between atoms: _909  and  _910
REMARK  363  A    between atoms: _913  and  _915
REMARK  364  A    between atoms: _915  and  _916
REMARK  365  A    between atoms: _915  and  _918
REMARK  366  A    between atoms: _918  and  _919
REMARK  367  A    between atoms: _919  and  _920
REMARK  368  A    between atoms: _920  and  _921
REMARK  369  A    between atoms: _930  and  _932
REMARK  370  A    between atoms: _932  and  _933
REMARK  371  A    between atoms: _932  and  _935
REMARK  372  A    between atoms: _935  and  _936
REMARK  373  A    between atoms: _941  and  _942
REMARK  374  A    between atoms: _944  and  _946
REMARK  375  A    between atoms: _946  and  _947
REMARK  376  A    between atoms: _946  and  _949
REMARK  377  A    between atoms: _949  and  _950
REMARK                            x       y       z     vdW  Elec       q    Type
REMARK                         _______ _______ _______ _____ _____    ______ ____
ROOT
ATOM      1  O   HOH     1      15.249  20.116  44.859  0.00  0.00    +0.000 OA
ENDROOT
TORSDOF 0
REMARK  Name = ../refined-set-2016/1xr9/1xr9_pocket.pdb
REMARK  377 active torsions:
REMARK  status: ('A' for Active; 'I' for Inactive)
REMARK    1  A    between atoms: _1  and  _3
REMARK    2  A    between atoms: _3  and  _4
REMARK    3  A    between atoms: _3  and  _6
REMARK    4  A    between atoms: _6  and  _7
REMARK    5  A    between atoms: _7  and  _8
REMARK    6  A    between atoms: _10  and  _12
REMARK    7  A    between atoms: _12  and  _13
REMARK    8  A    between atoms: _12  and  _15
REMARK    9  A    between atoms: _15  and  _16
REMARK   10  A    between atoms: _16  and  _17
REMARK   11  A    between atoms: _17  and  _18
REMARK   12  A    between atoms: _27  and  _29
REMARK   13  A    between atoms: _29  and  _30
REMARK   14  A    between atoms: _29  and  _32
REMARK   15  A    between atoms: _32  and  _33
REMARK   16  A    between atoms: _38  and  _39
REMARK   17  A    between atoms: _41  and  _43
REMARK   18  A    between atoms: _43  and  _44
REMARK   19  A    between atoms: _43  and  _46
REMARK   20  A    between atoms: _46  and  _47
REMARK   21  A    between atoms: _53  and  _55
REMARK   22  A    between atoms: _55  and  _56
REMARK   23  A    between atoms: _55  and  _58
REMARK   24  A    between atoms: _58  and  _59
REMARK   25  A    between atoms: _64  and  _65
REMARK   26  A    between atoms: _67  and  _69
REMARK   27  A    between atoms: _69  and  _70
REMARK   28  A    between atoms: _69  and  _72
REMARK   29  A    between atoms: _72  and  _73
REMARK   30  A    between atoms: _79  and  _81
REMARK   31  A    between atoms: _81  and  _82
REMARK   32  A    between atoms: _85  and  _87
REMARK   33  A    between atoms: _87  and  _88
REMARK   34  A    between atoms: _87  and  _90
REMARK   35  A    between atoms: _93  and  _95
REMARK   36  A    between atoms: _95  and  _96
REMARK   37  A    between atoms: _98  and  _100
REMARK   38  A    between atoms: _100  and  _101
REMARK   39  A    between atoms: _100  and  _103
REMARK   40  A    between atoms: _106  and  _108
REMARK   41  A    between atoms: _108  and  _109
REMARK   42  A    between atoms: _108  and  _111
REMARK   43  A    between atoms: _111  and  _112
REMARK   44  A    between atoms: _118  and  _120
REMARK   45  A    between atoms: _120  and  _121
REMARK   46  A    between atoms: _120  and  _123
REMARK   47  A    between atoms: _126  and  _128
REMARK   48  A    between atoms: _128  and  _129
REMARK   49  A    between atoms: _128  and  _131
REMARK   50  A    between atoms: _131  and  _132
REMARK   51  A    between atoms: _138  and  _140
REMARK   52  A    between atoms: _140  and  _141
REMARK   53  A    between atoms: _140  and  _143
REMARK   54  A    between atoms: _143  and  _144
REMARK   55  A    between atoms: _144  and  _145
REMARK   56  A    between atoms: _147  and  _149
REMARK   57  A    between atoms: _149  and  _150
REMARK   58  A    between atoms: _149  and  _152
REMARK   59  A    between atoms: _152  and  _153
REMARK   60  A    between atoms: _156  and  _158
REMARK   61  A    between atoms: _158  and  _159
REMARK   62  A    between atoms: _158  and  _161
REMARK   63  A    between atoms: _161  and  _162
REMARK   64  A    between atoms: _162  and  _163
REMARK   65  A    between atoms: _166  and  _168
REMARK   66  A    between atoms: _168  and  _169
REMARK   67  A    between atoms: _168  and  _171
REMARK   68  A    between atoms: _171  and  _172
REMARK   69  A    between atoms: _172  and  _173
REMARK   70  A    between atoms: _176  and  _178
REMARK   71  A    between atoms: _178  and  _179
REMARK   72  A    between atoms: _178  and  _181
REMARK   73  A    between atoms: _181  and  _182
REMARK   74  A    between atoms: _187  and  _188
REMARK   75  A    between atoms: _190  and  _192
REMARK   76  A    between atoms: _192  and  _193
REMARK   77  A    between atoms: _192  and  _195
REMARK   78  A    between atoms: _195  and  _196
REMARK   79  A    between atoms: _206  and  _208
REMARK   80  A    between atoms: _208  and  _209
REMARK   81  A    between atoms: _208  and  _211
REMARK   82  A    between atoms: _211  and  _212
REMARK   83  A    between atoms: _215  and  _217
REMARK   84  A    between atoms: _217  and  _218
REMARK   85  A    between atoms: _217  and  _220
REMARK   86  A    between atoms: _220  and  _221
REMARK   87  A    between atoms: _221  and  _222
REMARK   88  A    between atoms: _222  and  _223
REMARK   89  A    between atoms: _232  and  _234
REMARK   90  A    between atoms: _234  and  _235
REMARK   91  A    between atoms: _234  and  _237
REMARK   92  A    between atoms: _237  and  _238
REMARK   93  A    between atoms: _238  and  _239
REMARK   94  A    between atoms: _242  and  _244
REMARK   95  A    between atoms: _244  and  _245
REMARK   96  A    between atoms: _244  and  _247
REMARK   97  A    between atoms: _247  and  _248
REMARK   98  A    between atoms: _251  and  _253
REMARK   99  A    between atoms: _253  and  _254
REMARK  100  A    between atoms: _253  and  _256
REMARK  101  A    between atoms: _256  and  _257
REMARK  102  A    between atoms: _257  and  _258
REMARK  103  A    between atoms: _263  and  _265
REMARK  104  A    between atoms: _265  and  _266
REMARK  105  A    between atoms: _265  and  _268
REMARK  106  A    between atoms: _268  and  _269
REMARK  107  A    between atoms: _272  and  _274
REMARK  108  A    between atoms: _274  and  _275
REMARK  109  A    between atoms: _274  and  _277
REMARK  110  A    between atoms: _277  and  _278
REMARK  111  A    between atoms: _280  and  _282
REMARK  112  A    between atoms: _282  and  _283
REMARK  113  A    between atoms: _282  and  _285
REMARK  114  A    between atoms: _285  and  _286
REMARK  115  A    between atoms: _286  and  _287
REMARK  116  A    between atoms: _287  and  _288
REMARK  117  A    between atoms: _288  and  _289
REMARK  118  A    between atoms: _293  and  _295
REMARK  119  A    between atoms: _295  and  _296
REMARK  120  A    between atoms: _295  and  _298
REMARK  121  A    between atoms: _298  and  _299
REMARK  122  A    between atoms: _302  and  _304
REMARK  123  A    between atoms: _304  and  _305
REMARK  124  A    between atoms: _304  and  _307
REMARK  125  A    between atoms: _307  and  _308
REMARK  126  A    between atoms: _313  and  _315
REMARK  127  A    between atoms: _315  and  _316
REMARK  128  A    between atoms: _315  and  _318
REMARK  129  A    between atoms: _318  and  _319
REMARK  130  A    between atoms: _319  and  _320
REMARK  131  A    between atoms: _325  and  _327
REMARK  132  A    between atoms: _327  and  _328
REMARK  133  A    between atoms: _327  and  _330
REMARK  134  A    between atoms: _330  and  _331
REMARK  135  A    between atoms: _334  and  _336
REMARK  136  A    between atoms: _336  and  _337
REMARK  137  A    between atoms: _336  and  _339
REMARK  138  A    between atoms: _339  and  _340
REMARK  139  A    between atoms: _345  and  _346
REMARK  140  A    between atoms: _348  and  _350
REMARK  141  A    between atoms: _350  and  _351
REMARK  142  A    between atoms: _350  and  _353
REMARK  143  A    between atoms: _353  and  _354
REMARK  144  A    between atoms: _354  and  _355
REMARK  145  A    between atoms: _355  and  _356
REMARK  146  A    between atoms: _365  and  _367
REMARK  147  A    between atoms: _367  and  _368
REMARK  148  A    between atoms: _367  and  _370
REMARK  149  A    between atoms: _370  and  _371
REMARK  150  A    between atoms: _371  and  _372
REMARK  151  A    between atoms: _375  and  _377
REMARK  152  A    between atoms: _377  and  _378
REMARK  153  A    between atoms: _377  and  _380
REMARK  154  A    between atoms: _380  and  _381
REMARK  155  A    between atoms: _383  and  _385
REMARK  156  A    between atoms: _385  and  _386
REMARK  157  A    between atoms: _385  and  _388
REMARK  158  A    between atoms: _388  and  _389
REMARK  159  A    between atoms: _392  and  _394
REMARK  160  A    between atoms: _394  and  _395
REMARK  161  A    between atoms: _394  and  _397
REMARK  162  A    between atoms: _397  and  _398
REMARK  163  A    between atoms: _398  and  _399
REMARK  164  A    between atoms: _399  and  _400
REMARK  165  A    between atoms: _409  and  _411
REMARK  166  A    between atoms: _411  and  _412
REMARK  167  A    between atoms: _411  and  _414
REMARK  168  A    between atoms: _414  and  _415
REMARK  169  A    between atoms: _420  and  _422
REMARK  170  A    between atoms: _422  and  _423
REMARK  171  A    between atoms: _422  and  _425
REMARK  172  A    between atoms: _425  and  _426
REMARK  173  A    between atoms: _429  and  _431
REMARK  174  A    between atoms: _431  and  _432
REMARK  175  A    between atoms: _431  and  _434
REMARK  176  A    between atoms: _434  and  _435
REMARK  177  A    between atoms: _440  and  _441
REMARK  178  A    between atoms: _443  and  _445
REMARK  179  A    between atoms: _445  and  _446
REMARK  180  A    between atoms: _445  and  _448
REMARK  181  A    between atoms: _448  and  _449
REMARK  182  A    between atoms: _452  and  _454
REMARK  183  A    between atoms: _454  and  _455
REMARK  184  A    between atoms: _454  and  _457
REMARK  185  A    between atoms: _457  and  _458
REMARK  186  A    between atoms: _458  and  _459
REMARK  187  A    between atoms: _464  and  _466
REMARK  188  A    between atoms: _466  and  _467
REMARK  189  A    between atoms: _466  and  _469
REMARK  190  A    between atoms: _469  and  _470
REMARK  191  A    between atoms: _470  and  _471
REMARK  192  A    between atoms: _471  and  _472
REMARK  193  A    between atoms: _481  and  _483
REMARK  194  A    between atoms: _483  and  _484
REMARK  195  A    between atoms: _483  and  _486
REMARK  196  A    between atoms: _486  and  _487
REMARK  197  A    between atoms: _487  and  _488
REMARK  198  A    between atoms: _490  and  _492
REMARK  199  A    between atoms: _492  and  _493
REMARK  200  A    between atoms: _492  and  _495
REMARK  201  A    between atoms: _495  and  _496
REMARK  202  A    between atoms: _501  and  _502
REMARK  203  A    between atoms: _504  and  _506
REMARK  204  A    between atoms: _506  and  _507
REMARK  205  A    between atoms: _509  and  _511
REMARK  206  A    between atoms: _511  and  _512
REMARK  207  A    between atoms: _511  and  _514
REMARK  208  A    between atoms: _514  and  _515
REMARK  209  A    between atoms: _515  and  _869
REMARK  210  A    between atoms: _516  and  _518
REMARK  211  A    between atoms: _518  and  _519
REMARK  212  A    between atoms: _518  and  _521
REMARK  213  A    between atoms: _521  and  _522
REMARK  214  A    between atoms: _525  and  _527
REMARK  215  A    between atoms: _527  and  _528
REMARK  216  A    between atoms: _527  and  _530
REMARK  217  A    between atoms: _530  and  _531
REMARK  218  A    between atoms: _531  and  _532
REMARK  219  A    between atoms: _537  and  _539
REMARK  220  A    between atoms: _539  and  _540
REMARK  221  A    between atoms: _539  and  _542
REMARK  222  A    between atoms: _542  and  _543
REMARK  223  A    between atoms: _545  and  _547
REMARK  224  A    between atoms: _547  and  _548
REMARK  225  A    between atoms: _551  and  _553
REMARK  226  A    between atoms: _553  and  _554
REMARK  227  A    between atoms: _553  and  _556
REMARK  228  A    between atoms: _556  and  _557
REMARK  229  A    between atoms: _562  and  _563
REMARK  230  A    between atoms: _565  and  _567
REMARK  231  A    between atoms: _567  and  _568
REMARK  232  A    between atoms: _567  and  _570
REMARK  233  A    between atoms: _570  and  _571
REMARK  234  A    between atoms: _576  and  _577
REMARK  235  A    between atoms: _579  and  _581
REMARK  236  A    between atoms: _581  and  _582
REMARK  237  A    between atoms: _581  and  _584
REMARK  238  A    between atoms: _584  and  _585
REMARK  239  A    between atoms: _588  and  _590
REMARK  240  A    between atoms: _590  and  _591
REMARK  241  A    between atoms: _594  and  _596
REMARK  242  A    between atoms: _596  and  _597
REMARK  243  A    between atoms: _596  and  _599
REMARK  244  A    between atoms: _599  and  _600
REMARK  245  A    between atoms: _610  and  _612
REMARK  246  A    between atoms: _612  and  _613
REMARK  247  A    between atoms: _616  and  _618
REMARK  248  A    between atoms: _618  and  _619
REMARK  249  A    between atoms: _622  and  _624
REMARK  250  A    between atoms: _624  and  _625
REMARK  251  A    between atoms: _624  and  _627
REMARK  252  A    between atoms: _627  and  _628
REMARK  253  A    between atoms: _628  and  _629
REMARK  254  A    between atoms: _634  and  _636
REMARK  255  A    between atoms: _636  and  _637
REMARK  256  A    between atoms: _636  and  _639
REMARK  257  A    between atoms: _639  and  _640
REMARK  258  A    between atoms: _643  and  _645
REMARK  259  A    between atoms: _645  and  _646
REMARK  260  A    between atoms: _645  and  _648
REMARK  261  A    between atoms: _648  and  _649
REMARK  262  A    between atoms: _652  and  _654
REMARK  263  A    between atoms: _654  and  _655
REMARK  264  A    between atoms: _654  and  _657
REMARK  265  A    between atoms: _657  and  _658
REMARK  266  A    between atoms: _658  and  _659
REMARK  267  A    between atoms: _664  and  _666
REMARK  268  A    between atoms: _666  and  _667
REMARK  269  A    between atoms: _666  and  _669
REMARK  270  A    between atoms: _669  and  _670
REMARK  271  A    between atoms: _670  and  _671
REMARK  272  A    between atoms: _671  and  _672
REMARK  273  A    between atoms: _681  and  _683
REMARK  274  A    between atoms: _683  and  _684
REMARK  275  A    between atoms: _683  and  _686
REMARK  276  A    between atoms: _686  and  _687
REMARK  277  A    between atoms: _687  and  _688
REMARK  278  A    between atoms: _688  and  _689
REMARK  279  A    between atoms: _689  and  _690
REMARK  280  A    between atoms: _694  and  _696
REMARK  281  A    between atoms: _696  and  _697
REMARK  282  A    between atoms: _696  and  _699
REMARK  283  A    between atoms: _699  and  _700
REMARK  284  A    between atoms: _710  and  _712
REMARK  285  A    between atoms: _712  and  _713
REMARK  286  A    between atoms: _712  and  _715
REMARK  287  A    between atoms: _715  and  _716
REMARK  288  A    between atoms: _716  and  _717
REMARK  289  A    between atoms: _720  and  _722
REMARK  290  A    between atoms: _722  and  _723
REMARK  291  A    between atoms: _726  and  _728
REMARK  292  A    between atoms: _728  and  _729
REMARK  293  A    between atoms: _732  and  _734
REMARK  294  A    between atoms: _734  and  _735
REMARK  295  A    between atoms: _734  and  _737
REMARK  296  A    between atoms: _737  and  _738
REMARK  297  A    between atoms: _738  and  _739
REMARK  298  A    between atoms: _739  and  _740
REMARK  299  A    between atoms: _749  and  _751
REMARK  300  A    between atoms: _751  and  _752
REMARK  301  A    between atoms: _751  and  _754
REMARK  302  A    between atoms: _754  and  _755
REMARK  303  A    between atoms: _755  and  _756
REMARK  304  A    between atoms: _759  and  _761
REMARK  305  A    between atoms: _761  and  _762
REMARK  306  A    between atoms: _765  and  _767
REMARK  307  A    between atoms: _767  and  _768
REMARK  308  A    between atoms: _767  and  _770
REMARK  309  A    between atoms: _770  and  _771
REMARK  310  A    between atoms: _771  and  _772
REMARK  311  A    between atoms: _775  and  _777
REMARK  312  A    between atoms: _777  and  _778
REMARK  313  A    between atoms: _777  and  _780
REMARK  314  A    between atoms: _780  and  _781
REMARK  315  A    between atoms: _781  and  _782
REMARK  316  A    between atoms: _787  and  _789
REMARK  317  A    between atoms: _789  and  _790
REMARK  318  A    between atoms: _789  and  _792
REMARK  319  A    between atoms: _792  and  _793
REMARK  320  A    between atoms: _803  and  _805
REMARK  321  A    between atoms: _805  and  _806
REMARK  322  A    between atoms: _805  and  _808
REMARK  323  A    between atoms: _808  and  _809
REMARK  324  A    between atoms: _809  and  _810
REMARK  325  A    between atoms: _810  and  _811
REMARK  326  A    between atoms: _820  and  _822
REMARK  327  A    between atoms: _822  and  _823
REMARK  328  A    between atoms: _826  and  _828
REMARK  329  A    between atoms: _828  and  _829
REMARK  330  A    between atoms: _828  and  _831
REMARK  331  A    between atoms: _831  and  _832
REMARK  332  A    between atoms: _837  and  _838
REMARK  333  A    between atoms: _840  and  _842
REMARK  334  A    between atoms: _842  and  _843
REMARK  335  A    between atoms: _842  and  _845
REMARK  336  A    between atoms: _845  and  _846
REMARK  337  A    between atoms: _849  and  _851
REMARK  338  A    between atoms: _851  and  _852
REMARK  339  A    between atoms: _854  and  _856
REMARK  340  A    between atoms: _856  and  _857
REMARK  341  A    between atoms: _856  and  _859
REMARK  342  A    between atoms: _859  and  _860
REMARK  343  A    between atoms: _863  and  _865
REMARK  344  A    between atoms: _865  and  _866
REMARK  345  A    between atoms: _865  and  _868
REMARK  346  A    between atoms: _868  and  _869
REMARK  347  A    between atoms: _870  and  _872
REMARK  348  A    between atoms: _872  and  _873
REMARK  349  A    between atoms: _872  and  _875
REMARK  350  A    between atoms: _878  and  _880
REMARK  351  A    between atoms: _880  and  _881
REMARK  352  A    between atoms: _880  and  _883
REMARK  353  A    between atoms: _883  and  _884
REMARK  354  A    between atoms: _884  and  _885
REMARK  355  A    between atoms: _888  and  _890
REMARK  356  A    between atoms: _890  and  _891
REMARK  357  A    between atoms: _890  and  _893
REMARK  358  A    between atoms: _893  and  _894
REMARK  359  A    between atoms: _904  and  _906
REMARK  360  A    between atoms: _906  and  _907
REMARK  361  A    between atoms: _906  and  _909
REMARK  362  A    between atoms: _909  and  _910
REMARK  363  A    between atoms: _913  and  _915
REMARK  364  A    between atoms: _915  and  _916
REMARK  365  A    between atoms: _915  and  _918
REMARK  366  A    between atoms: _918  and  _919
REMARK  367  A    between atoms: _919  and  _920
REMARK  368  A    between atoms: _920  and  _921
REMARK  369  A    between atoms: _930  and  _932
REMARK  370  A    between atoms: _932  and  _933
REMARK  371  A    between atoms: _932  and  _935
REMARK  372  A    between atoms: _935  and  _936
REMARK  373  A    between atoms: _941  and  _942
REMARK  374  A    between atoms: _944  and  _946
REMARK  375  A    between atoms: _946  and  _947
REMARK  376  A    between atoms: _946  and  _949
REMARK  377  A    between atoms: _949  and  _950
REMARK                            x       y       z     vdW  Elec       q    Type
REMARK                         _______ _______ _______ _____ _____    ______ ____
ROOT
ATOM      1  O   HOH     1      17.759  21.228  44.476  0.00  0.00    +0.000 OA
ENDROOT
TORSDOF 0
REMARK  Name = ../refined-set-2016/1xr9/1xr9_pocket.pdb
REMARK  377 active torsions:
REMARK  status: ('A' for Active; 'I' for Inactive)
REMARK    1  A    between atoms: _1  and  _3
REMARK    2  A    between atoms: _3  and  _4
REMARK    3  A    between atoms: _3  and  _6
REMARK    4  A    between atoms: _6  and  _7
REMARK    5  A    between atoms: _7  and  _8
REMARK    6  A    between atoms: _10  and  _12
REMARK    7  A    between atoms: _12  and  _13
REMARK    8  A    between atoms: _12  and  _15
REMARK    9  A    between atoms: _15  and  _16
REMARK   10  A    between atoms: _16  and  _17
REMARK   11  A    between atoms: _17  and  _18
REMARK   12  A    between atoms: _27  and  _29
REMARK   13  A    between atoms: _29  and  _30
REMARK   14  A    between atoms: _29  and  _32
REMARK   15  A    between atoms: _32  and  _33
REMARK   16  A    between atoms: _38  and  _39
REMARK   17  A    between atoms: _41  and  _43
REMARK   18  A    between atoms: _43  and  _44
REMARK   19  A    between atoms: _43  and  _46
REMARK   20  A    between atoms: _46  and  _47
REMARK   21  A    between atoms: _53  and  _55
REMARK   22  A    between atoms: _55  and  _56
REMARK   23  A    between atoms: _55  and  _58
REMARK   24  A    between atoms: _58  and  _59
REMARK   25  A    between atoms: _64  and  _65
REMARK   26  A    between atoms: _67  and  _69
REMARK   27  A    between atoms: _69  and  _70
REMARK   28  A    between atoms: _69  and  _72
REMARK   29  A    between atoms: _72  and  _73
REMARK   30  A    between atoms: _79  and  _81
REMARK   31  A    between atoms: _81  and  _82
REMARK   32  A    between atoms: _85  and  _87
REMARK   33  A    between atoms: _87  and  _88
REMARK   34  A    between atoms: _87  and  _90
REMARK   35  A    between atoms: _93  and  _95
REMARK   36  A    between atoms: _95  and  _96
REMARK   37  A    between atoms: _98  and  _100
REMARK   38  A    between atoms: _100  and  _101
REMARK   39  A    between atoms: _100  and  _103
REMARK   40  A    between atoms: _106  and  _108
REMARK   41  A    between atoms: _108  and  _109
REMARK   42  A    between atoms: _108  and  _111
REMARK   43  A    between atoms: _111  and  _112
REMARK   44  A    between atoms: _118  and  _120
REMARK   45  A    between atoms: _120  and  _121
REMARK   46  A    between atoms: _120  and  _123
REMARK   47  A    between atoms: _126  and  _128
REMARK   48  A    between atoms: _128  and  _129
REMARK   49  A    between atoms: _128  and  _131
REMARK   50  A    between atoms: _131  and  _132
REMARK   51  A    between atoms: _138  and  _140
REMARK   52  A    between atoms: _140  and  _141
REMARK   53  A    between atoms: _140  and  _143
REMARK   54  A    between atoms: _143  and  _144
REMARK   55  A    between atoms: _144  and  _145
REMARK   56  A    between atoms: _147  and  _149
REMARK   57  A    between atoms: _149  and  _150
REMARK   58  A    between atoms: _149  and  _152
REMARK   59  A    between atoms: _152  and  _153
REMARK   60  A    between atoms: _156  and  _158
REMARK   61  A    between atoms: _158  and  _159
REMARK   62  A    between atoms: _158  and  _161
REMARK   63  A    between atoms: _161  and  _162
REMARK   64  A    between atoms: _162  and  _163
REMARK   65  A    between atoms: _166  and  _168
REMARK   66  A    between atoms: _168  and  _169
REMARK   67  A    between atoms: _168  and  _171
REMARK   68  A    between atoms: _171  and  _172
REMARK   69  A    between atoms: _172  and  _173
REMARK   70  A    between atoms: _176  and  _178
REMARK   71  A    between atoms: _178  and  _179
REMARK   72  A    between atoms: _178  and  _181
REMARK   73  A    between atoms: _181  and  _182
REMARK   74  A    between atoms: _187  and  _188
REMARK   75  A    between atoms: _190  and  _192
REMARK   76  A    between atoms: _192  and  _193
REMARK   77  A    between atoms: _192  and  _195
REMARK   78  A    between atoms: _195  and  _196
REMARK   79  A    between atoms: _206  and  _208
REMARK   80  A    between atoms: _208  and  _209
REMARK   81  A    between atoms: _208  and  _211
REMARK   82  A    between atoms: _211  and  _212
REMARK   83  A    between atoms: _215  and  _217
REMARK   84  A    between atoms: _217  and  _218
REMARK   85  A    between atoms: _217  and  _220
REMARK   86  A    between atoms: _220  and  _221
REMARK   87  A    between atoms: _221  and  _222
REMARK   88  A    between atoms: _222  and  _223
REMARK   89  A    between atoms: _232  and  _234
REMARK   90  A    between atoms: _234  and  _235
REMARK   91  A    between atoms: _234  and  _237
REMARK   92  A    between atoms: _237  and  _238
REMARK   93  A    between atoms: _238  and  _239
REMARK   94  A    between atoms: _242  and  _244
REMARK   95  A    between atoms: _244  and  _245
REMARK   96  A    between atoms: _244  and  _247
REMARK   97  A    between atoms: _247  and  _248
REMARK   98  A    between atoms: _251  and  _253
REMARK   99  A    between atoms: _253  and  _254
REMARK  100  A    between atoms: _253  and  _256
REMARK  101  A    between atoms: _256  and  _257
REMARK  102  A    between atoms: _257  and  _258
REMARK  103  A    between atoms: _263  and  _265
REMARK  104  A    between atoms: _265  and  _266
REMARK  105  A    between atoms: _265  and  _268
REMARK  106  A    between atoms: _268  and  _269
REMARK  107  A    between atoms: _272  and  _274
REMARK  108  A    between atoms: _274  and  _275
REMARK  109  A    between atoms: _274  and  _277
REMARK  110  A    between atoms: _277  and  _278
REMARK  111  A    between atoms: _280  and  _282
REMARK  112  A    between atoms: _282  and  _283
REMARK  113  A    between atoms: _282  and  _285
REMARK  114  A    between atoms: _285  and  _286
REMARK  115  A    between atoms: _286  and  _287
REMARK  116  A    between atoms: _287  and  _288
REMARK  117  A    between atoms: _288  and  _289
REMARK  118  A    between atoms: _293  and  _295
REMARK  119  A    between atoms: _295  and  _296
REMARK  120  A    between atoms: _295  and  _298
REMARK  121  A    between atoms: _298  and  _299
REMARK  122  A    between atoms: _302  and  _304
REMARK  123  A    between atoms: _304  and  _305
REMARK  124  A    between atoms: _304  and  _307
REMARK  125  A    between atoms: _307  and  _308
REMARK  126  A    between atoms: _313  and  _315
REMARK  127  A    between atoms: _315  and  _316
REMARK  128  A    between atoms: _315  and  _318
REMARK  129  A    between atoms: _318  and  _319
REMARK  130  A    between atoms: _319  and  _320
REMARK  131  A    between atoms: _325  and  _327
REMARK  132  A    between atoms: _327  and  _328
REMARK  133  A    between atoms: _327  and  _330
REMARK  134  A    between atoms: _330  and  _331
REMARK  135  A    between atoms: _334  and  _336
REMARK  136  A    between atoms: _336  and  _337
REMARK  137  A    between atoms: _336  and  _339
REMARK  138  A    between atoms: _339  and  _340
REMARK  139  A    between atoms: _345  and  _346
REMARK  140  A    between atoms: _348  and  _350
REMARK  141  A    between atoms: _350  and  _351
REMARK  142  A    between atoms: _350  and  _353
REMARK  143  A    between atoms: _353  and  _354
REMARK  144  A    between atoms: _354  and  _355
REMARK  145  A    between atoms: _355  and  _356
REMARK  146  A    between atoms: _365  and  _367
REMARK  147  A    between atoms: _367  and  _368
REMARK  148  A    between atoms: _367  and  _370
REMARK  149  A    between atoms: _370  and  _371
REMARK  150  A    between atoms: _371  and  _372
REMARK  151  A    between atoms: _375  and  _377
REMARK  152  A    between atoms: _377  and  _378
REMARK  153  A    between atoms: _377  and  _380
REMARK  154  A    between atoms: _380  and  _381
REMARK  155  A    between atoms: _383  and  _385
REMARK  156  A    between atoms: _385  and  _386
REMARK  157  A    between atoms: _385  and  _388
REMARK  158  A    between atoms: _388  and  _389
REMARK  159  A    between atoms: _392  and  _394
REMARK  160  A    between atoms: _394  and  _395
REMARK  161  A    between atoms: _394  and  _397
REMARK  162  A    between atoms: _397  and  _398
REMARK  163  A    between atoms: _398  and  _399
REMARK  164  A    between atoms: _399  and  _400
REMARK  165  A    between atoms: _409  and  _411
REMARK  166  A    between atoms: _411  and  _412
REMARK  167  A    between atoms: _411  and  _414
REMARK  168  A    between atoms: _414  and  _415
REMARK  169  A    between atoms: _420  and  _422
REMARK  170  A    between atoms: _422  and  _423
REMARK  171  A    between atoms: _422  and  _425
REMARK  172  A    between atoms: _425  and  _426
REMARK  173  A    between atoms: _429  and  _431
REMARK  174  A    between atoms: _431  and  _432
REMARK  175  A    between atoms: _431  and  _434
REMARK  176  A    between atoms: _434  and  _435
REMARK  177  A    between atoms: _440  and  _441
REMARK  178  A    between atoms: _443  and  _445
REMARK  179  A    between atoms: _445  and  _446
REMARK  180  A    between atoms: _445  and  _448
REMARK  181  A    between atoms: _448  and  _449
REMARK  182  A    between atoms: _452  and  _454
REMARK  183  A    between atoms: _454  and  _455
REMARK  184  A    between atoms: _454  and  _457
REMARK  185  A    between atoms: _457  and  _458
REMARK  186  A    between atoms: _458  and  _459
REMARK  187  A    between atoms: _464  and  _466
REMARK  188  A    between atoms: _466  and  _467
REMARK  189  A    between atoms: _466  and  _469
REMARK  190  A    between atoms: _469  and  _470
REMARK  191  A    between atoms: _470  and  _471
REMARK  192  A    between atoms: _471  and  _472
REMARK  193  A    between atoms: _481  and  _483
REMARK  194  A    between atoms: _483  and  _484
REMARK  195  A    between atoms: _483  and  _486
REMARK  196  A    between atoms: _486  and  _487
REMARK  197  A    between atoms: _487  and  _488
REMARK  198  A    between atoms: _490  and  _492
REMARK  199  A    between atoms: _492  and  _493
REMARK  200  A    between atoms: _492  and  _495
REMARK  201  A    between atoms: _495  and  _496
REMARK  202  A    between atoms: _501  and  _502
REMARK  203  A    between atoms: _504  and  _506
REMARK  204  A    between atoms: _506  and  _507
REMARK  205  A    between atoms: _509  and  _511
REMARK  206  A    between atoms: _511  and  _512
REMARK  207  A    between atoms: _511  and  _514
REMARK  208  A    between atoms: _514  and  _515
REMARK  209  A    between atoms: _515  and  _869
REMARK  210  A    between atoms: _516  and  _518
REMARK  211  A    between atoms: _518  and  _519
REMARK  212  A    between atoms: _518  and  _521
REMARK  213  A    between atoms: _521  and  _522
REMARK  214  A    between atoms: _525  and  _527
REMARK  215  A    between atoms: _527  and  _528
REMARK  216  A    between atoms: _527  and  _530
REMARK  217  A    between atoms: _530  and  _531
REMARK  218  A    between atoms: _531  and  _532
REMARK  219  A    between atoms: _537  and  _539
REMARK  220  A    between atoms: _539  and  _540
REMARK  221  A    between atoms: _539  and  _542
REMARK  222  A    between atoms: _542  and  _543
REMARK  223  A    between atoms: _545  and  _547
REMARK  224  A    between atoms: _547  and  _548
REMARK  225  A    between atoms: _551  and  _553
REMARK  226  A    between atoms: _553  and  _554
REMARK  227  A    between atoms: _553  and  _556
REMARK  228  A    between atoms: _556  and  _557
REMARK  229  A    between atoms: _562  and  _563
REMARK  230  A    between atoms: _565  and  _567
REMARK  231  A    between atoms: _567  and  _568
REMARK  232  A    between atoms: _567  and  _570
REMARK  233  A    between atoms: _570  and  _571
REMARK  234  A    between atoms: _576  and  _577
REMARK  235  A    between atoms: _579  and  _581
REMARK  236  A    between atoms: _581  and  _582
REMARK  237  A    between atoms: _581  and  _584
REMARK  238  A    between atoms: _584  and  _585
REMARK  239  A    between atoms: _588  and  _590
REMARK  240  A    between atoms: _590  and  _591
REMARK  241  A    between atoms: _594  and  _596
REMARK  242  A    between atoms: _596  and  _597
REMARK  243  A    between atoms: _596  and  _599
REMARK  244  A    between atoms: _599  and  _600
REMARK  245  A    between atoms: _610  and  _612
REMARK  246  A    between atoms: _612  and  _613
REMARK  247  A    between atoms: _616  and  _618
REMARK  248  A    between atoms: _618  and  _619
REMARK  249  A    between atoms: _622  and  _624
REMARK  250  A    between atoms: _624  and  _625
REMARK  251  A    between atoms: _624  and  _627
REMARK  252  A    between atoms: _627  and  _628
REMARK  253  A    between atoms: _628  and  _629
REMARK  254  A    between atoms: _634  and  _636
REMARK  255  A    between atoms: _636  and  _637
REMARK  256  A    between atoms: _636  and  _639
REMARK  257  A    between atoms: _639  and  _640
REMARK  258  A    between atoms: _643  and  _645
REMARK  259  A    between atoms: _645  and  _646
REMARK  260  A    between atoms: _645  and  _648
REMARK  261  A    between atoms: _648  and  _649
REMARK  262  A    between atoms: _652  and  _654
REMARK  263  A    between atoms: _654  and  _655
REMARK  264  A    between atoms: _654  and  _657
REMARK  265  A    between atoms: _657  and  _658
REMARK  266  A    between atoms: _658  and  _659
REMARK  267  A    between atoms: _664  and  _666
REMARK  268  A    between atoms: _666  and  _667
REMARK  269  A    between atoms: _666  and  _669
REMARK  270  A    between atoms: _669  and  _670
REMARK  271  A    between atoms: _670  and  _671
REMARK  272  A    between atoms: _671  and  _672
REMARK  273  A    between atoms: _681  and  _683
REMARK  274  A    between atoms: _683  and  _684
REMARK  275  A    between atoms: _683  and  _686
REMARK  276  A    between atoms: _686  and  _687
REMARK  277  A    between atoms: _687  and  _688
REMARK  278  A    between atoms: _688  and  _689
REMARK  279  A    between atoms: _689  and  _690
REMARK  280  A    between atoms: _694  and  _696
REMARK  281  A    between atoms: _696  and  _697
REMARK  282  A    between atoms: _696  and  _699
REMARK  283  A    between atoms: _699  and  _700
REMARK  284  A    between atoms: _710  and  _712
REMARK  285  A    between atoms: _712  and  _713
REMARK  286  A    between atoms: _712  and  _715
REMARK  287  A    between atoms: _715  and  _716
REMARK  288  A    between atoms: _716  and  _717
REMARK  289  A    between atoms: _720  and  _722
REMARK  290  A    between atoms: _722  and  _723
REMARK  291  A    between atoms: _726  and  _728
REMARK  292  A    between atoms: _728  and  _729
REMARK  293  A    between atoms: _732  and  _734
REMARK  294  A    between atoms: _734  and  _735
REMARK  295  A    between atoms: _734  and  _737
REMARK  296  A    between atoms: _737  and  _738
REMARK  297  A    between atoms: _738  and  _739
REMARK  298  A    between atoms: _739  and  _740
REMARK  299  A    between atoms: _749  and  _751
REMARK  300  A    between atoms: _751  and  _752
REMARK  301  A    between atoms: _751  and  _754
REMARK  302  A    between atoms: _754  and  _755
REMARK  303  A    between atoms: _755  and  _756
REMARK  304  A    between atoms: _759  and  _761
REMARK  305  A    between atoms: _761  and  _762
REMARK  306  A    between atoms: _765  and  _767
REMARK  307  A    between atoms: _767  and  _768
REMARK  308  A    between atoms: _767  and  _770
REMARK  309  A    between atoms: _770  and  _771
REMARK  310  A    between atoms: _771  and  _772
REMARK  311  A    between atoms: _775  and  _777
REMARK  312  A    between atoms: _777  and  _778
REMARK  313  A    between atoms: _777  and  _780
REMARK  314  A    between atoms: _780  and  _781
REMARK  315  A    between atoms: _781  and  _782
REMARK  316  A    between atoms: _787  and  _789
REMARK  317  A    between atoms: _789  and  _790
REMARK  318  A    between atoms: _789  and  _792
REMARK  319  A    between atoms: _792  and  _793
REMARK  320  A    between atoms: _803  and  _805
REMARK  321  A    between atoms: _805  and  _806
REMARK  322  A    between atoms: _805  and  _808
REMARK  323  A    between atoms: _808  and  _809
REMARK  324  A    between atoms: _809  and  _810
REMARK  325  A    between atoms: _810  and  _811
REMARK  326  A    between atoms: _820  and  _822
REMARK  327  A    between atoms: _822  and  _823
REMARK  328  A    between atoms: _826  and  _828
REMARK  329  A    between atoms: _828  and  _829
REMARK  330  A    between atoms: _828  and  _831
REMARK  331  A    between atoms: _831  and  _832
REMARK  332  A    between atoms: _837  and  _838
REMARK  333  A    between atoms: _840  and  _842
REMARK  334  A    between atoms: _842  and  _843
REMARK  335  A    between atoms: _842  and  _845
REMARK  336  A    between atoms: _845  and  _846
REMARK  337  A    between atoms: _849  and  _851
REMARK  338  A    between atoms: _851  and  _852
REMARK  339  A    between atoms: _854  and  _856
REMARK  340  A    between atoms: _856  and  _857
REMARK  341  A    between atoms: _856  and  _859
REMARK  342  A    between atoms: _859  and  _860
REMARK  343  A    between atoms: _863  and  _865
REMARK  344  A    between atoms: _865  and  _866
REMARK  345  A    between atoms: _865  and  _868
REMARK  346  A    between atoms: _868  and  _869
REMARK  347  A    between atoms: _870  and  _872
REMARK  348  A    between atoms: _872  and  _873
REMARK  349  A    between atoms: _872  and  _875
REMARK  350  A    between atoms: _878  and  _880
REMARK  351  A    between atoms: _880  and  _881
REMARK  352  A    between atoms: _880  and  _883
REMARK  353  A    between atoms: _883  and  _884
REMARK  354  A    between atoms: _884  and  _885
REMARK  355  A    between atoms: _888  and  _890
REMARK  356  A    between atoms: _890  and  _891
REMARK  357  A    between atoms: _890  and  _893
REMARK  358  A    between atoms: _893  and  _894
REMARK  359  A    between atoms: _904  and  _906
REMARK  360  A    between atoms: _906  and  _907
REMARK  361  A    between atoms: _906  and  _909
REMARK  362  A    between atoms: _909  and  _910
REMARK  363  A    between atoms: _913  and  _915
REMARK  364  A    between atoms: _915  and  _916
REMARK  365  A    between atoms: _915  and  _918
REMARK  366  A    between atoms: _918  and  _919
REMARK  367  A    between atoms: _919  and  _920
REMARK  368  A    between atoms: _920  and  _921
REMARK  369  A    between atoms: _930  and  _932
REMARK  370  A    between atoms: _932  and  _933
REMARK  371  A    between atoms: _932  and  _935
REMARK  372  A    between atoms: _935  and  _936
REMARK  373  A    between atoms: _941  and  _942
REMARK  374  A    between atoms: _944  and  _946
REMARK  375  A    between atoms: _946  and  _947
REMARK  376  A    between atoms: _946  and  _949
REMARK  377  A    between atoms: _949  and  _950
REMARK                            x       y       z     vdW  Elec       q    Type
REMARK                         _______ _______ _______ _____ _____    ______ ____
ROOT
ATOM      1  O   HOH     1      35.084  22.432  41.603  0.00  0.00    +0.000 OA
ENDROOT
TORSDOF 0
REMARK  Name = ../refined-set-2016/1xr9/1xr9_pocket.pdb
REMARK  377 active torsions:
REMARK  status: ('A' for Active; 'I' for Inactive)
REMARK    1  A    between atoms: _1  and  _3
REMARK    2  A    between atoms: _3  and  _4
REMARK    3  A    between atoms: _3  and  _6
REMARK    4  A    between atoms: _6  and  _7
REMARK    5  A    between atoms: _7  and  _8
REMARK    6  A    between atoms: _10  and  _12
REMARK    7  A    between atoms: _12  and  _13
REMARK    8  A    between atoms: _12  and  _15
REMARK    9  A    between atoms: _15  and  _16
REMARK   10  A    between atoms: _16  and  _17
REMARK   11  A    between atoms: _17  and  _18
REMARK   12  A    between atoms: _27  and  _29
REMARK   13  A    between atoms: _29  and  _30
REMARK   14  A    between atoms: _29  and  _32
REMARK   15  A    between atoms: _32  and  _33
REMARK   16  A    between atoms: _38  and  _39
REMARK   17  A    between atoms: _41  and  _43
REMARK   18  A    between atoms: _43  and  _44
REMARK   19  A    between atoms: _43  and  _46
REMARK   20  A    between atoms: _46  and  _47
REMARK   21  A    between atoms: _53  and  _55
REMARK   22  A    between atoms: _55  and  _56
REMARK   23  A    between atoms: _55  and  _58
REMARK   24  A    between atoms: _58  and  _59
REMARK   25  A    between atoms: _64  and  _65
REMARK   26  A    between atoms: _67  and  _69
REMARK   27  A    between atoms: _69  and  _70
REMARK   28  A    between atoms: _69  and  _72
REMARK   29  A    between atoms: _72  and  _73
REMARK   30  A    between atoms: _79  and  _81
REMARK   31  A    between atoms: _81  and  _82
REMARK   32  A    between atoms: _85  and  _87
REMARK   33  A    between atoms: _87  and  _88
REMARK   34  A    between atoms: _87  and  _90
REMARK   35  A    between atoms: _93  and  _95
REMARK   36  A    between atoms: _95  and  _96
REMARK   37  A    between atoms: _98  and  _100
REMARK   38  A    between atoms: _100  and  _101
REMARK   39  A    between atoms: _100  and  _103
REMARK   40  A    between atoms: _106  and  _108
REMARK   41  A    between atoms: _108  and  _109
REMARK   42  A    between atoms: _108  and  _111
REMARK   43  A    between atoms: _111  and  _112
REMARK   44  A    between atoms: _118  and  _120
REMARK   45  A    between atoms: _120  and  _121
REMARK   46  A    between atoms: _120  and  _123
REMARK   47  A    between atoms: _126  and  _128
REMARK   48  A    between atoms: _128  and  _129
REMARK   49  A    between atoms: _128  and  _131
REMARK   50  A    between atoms: _131  and  _132
REMARK   51  A    between atoms: _138  and  _140
REMARK   52  A    between atoms: _140  and  _141
REMARK   53  A    between atoms: _140  and  _143
REMARK   54  A    between atoms: _143  and  _144
REMARK   55  A    between atoms: _144  and  _145
REMARK   56  A    between atoms: _147  and  _149
REMARK   57  A    between atoms: _149  and  _150
REMARK   58  A    between atoms: _149  and  _152
REMARK   59  A    between atoms: _152  and  _153
REMARK   60  A    between atoms: _156  and  _158
REMARK   61  A    between atoms: _158  and  _159
REMARK   62  A    between atoms: _158  and  _161
REMARK   63  A    between atoms: _161  and  _162
REMARK   64  A    between atoms: _162  and  _163
REMARK   65  A    between atoms: _166  and  _168
REMARK   66  A    between atoms: _168  and  _169
REMARK   67  A    between atoms: _168  and  _171
REMARK   68  A    between atoms: _171  and  _172
REMARK   69  A    between atoms: _172  and  _173
REMARK   70  A    between atoms: _176  and  _178
REMARK   71  A    between atoms: _178  and  _179
REMARK   72  A    between atoms: _178  and  _181
REMARK   73  A    between atoms: _181  and  _182
REMARK   74  A    between atoms: _187  and  _188
REMARK   75  A    between atoms: _190  and  _192
REMARK   76  A    between atoms: _192  and  _193
REMARK   77  A    between atoms: _192  and  _195
REMARK   78  A    between atoms: _195  and  _196
REMARK   79  A    between atoms: _206  and  _208
REMARK   80  A    between atoms: _208  and  _209
REMARK   81  A    between atoms: _208  and  _211
REMARK   82  A    between atoms: _211  and  _212
REMARK   83  A    between atoms: _215  and  _217
REMARK   84  A    between atoms: _217  and  _218
REMARK   85  A    between atoms: _217  and  _220
REMARK   86  A    between atoms: _220  and  _221
REMARK   87  A    between atoms: _221  and  _222
REMARK   88  A    between atoms: _222  and  _223
REMARK   89  A    between atoms: _232  and  _234
REMARK   90  A    between atoms: _234  and  _235
REMARK   91  A    between atoms: _234  and  _237
REMARK   92  A    between atoms: _237  and  _238
REMARK   93  A    between atoms: _238  and  _239
REMARK   94  A    between atoms: _242  and  _244
REMARK   95  A    between atoms: _244  and  _245
REMARK   96  A    between atoms: _244  and  _247
REMARK   97  A    between atoms: _247  and  _248
REMARK   98  A    between atoms: _251  and  _253
REMARK   99  A    between atoms: _253  and  _254
REMARK  100  A    between atoms: _253  and  _256
REMARK  101  A    between atoms: _256  and  _257
REMARK  102  A    between atoms: _257  and  _258
REMARK  103  A    between atoms: _263  and  _265
REMARK  104  A    between atoms: _265  and  _266
REMARK  105  A    between atoms: _265  and  _268
REMARK  106  A    between atoms: _268  and  _269
REMARK  107  A    between atoms: _272  and  _274
REMARK  108  A    between atoms: _274  and  _275
REMARK  109  A    between atoms: _274  and  _277
REMARK  110  A    between atoms: _277  and  _278
REMARK  111  A    between atoms: _280  and  _282
REMARK  112  A    between atoms: _282  and  _283
REMARK  113  A    between atoms: _282  and  _285
REMARK  114  A    between atoms: _285  and  _286
REMARK  115  A    between atoms: _286  and  _287
REMARK  116  A    between atoms: _287  and  _288
REMARK  117  A    between atoms: _288  and  _289
REMARK  118  A    between atoms: _293  and  _295
REMARK  119  A    between atoms: _295  and  _296
REMARK  120  A    between atoms: _295  and  _298
REMARK  121  A    between atoms: _298  and  _299
REMARK  122  A    between atoms: _302  and  _304
REMARK  123  A    between atoms: _304  and  _305
REMARK  124  A    between atoms: _304  and  _307
REMARK  125  A    between atoms: _307  and  _308
REMARK  126  A    between atoms: _313  and  _315
REMARK  127  A    between atoms: _315  and  _316
REMARK  128  A    between atoms: _315  and  _318
REMARK  129  A    between atoms: _318  and  _319
REMARK  130  A    between atoms: _319  and  _320
REMARK  131  A    between atoms: _325  and  _327
REMARK  132  A    between atoms: _327  and  _328
REMARK  133  A    between atoms: _327  and  _330
REMARK  134  A    between atoms: _330  and  _331
REMARK  135  A    between atoms: _334  and  _336
REMARK  136  A    between atoms: _336  and  _337
REMARK  137  A    between atoms: _336  and  _339
REMARK  138  A    between atoms: _339  and  _340
REMARK  139  A    between atoms: _345  and  _346
REMARK  140  A    between atoms: _348  and  _350
REMARK  141  A    between atoms: _350  and  _351
REMARK  142  A    between atoms: _350  and  _353
REMARK  143  A    between atoms: _353  and  _354
REMARK  144  A    between atoms: _354  and  _355
REMARK  145  A    between atoms: _355  and  _356
REMARK  146  A    between atoms: _365  and  _367
REMARK  147  A    between atoms: _367  and  _368
REMARK  148  A    between atoms: _367  and  _370
REMARK  149  A    between atoms: _370  and  _371
REMARK  150  A    between atoms: _371  and  _372
REMARK  151  A    between atoms: _375  and  _377
REMARK  152  A    between atoms: _377  and  _378
REMARK  153  A    between atoms: _377  and  _380
REMARK  154  A    between atoms: _380  and  _381
REMARK  155  A    between atoms: _383  and  _385
REMARK  156  A    between atoms: _385  and  _386
REMARK  157  A    between atoms: _385  and  _388
REMARK  158  A    between atoms: _388  and  _389
REMARK  159  A    between atoms: _392  and  _394
REMARK  160  A    between atoms: _394  and  _395
REMARK  161  A    between atoms: _394  and  _397
REMARK  162  A    between atoms: _397  and  _398
REMARK  163  A    between atoms: _398  and  _399
REMARK  164  A    between atoms: _399  and  _400
REMARK  165  A    between atoms: _409  and  _411
REMARK  166  A    between atoms: _411  and  _412
REMARK  167  A    between atoms: _411  and  _414
REMARK  168  A    between atoms: _414  and  _415
REMARK  169  A    between atoms: _420  and  _422
REMARK  170  A    between atoms: _422  and  _423
REMARK  171  A    between atoms: _422  and  _425
REMARK  172  A    between atoms: _425  and  _426
REMARK  173  A    between atoms: _429  and  _431
REMARK  174  A    between atoms: _431  and  _432
REMARK  175  A    between atoms: _431  and  _434
REMARK  176  A    between atoms: _434  and  _435
REMARK  177  A    between atoms: _440  and  _441
REMARK  178  A    between atoms: _443  and  _445
REMARK  179  A    between atoms: _445  and  _446
REMARK  180  A    between atoms: _445  and  _448
REMARK  181  A    between atoms: _448  and  _449
REMARK  182  A    between atoms: _452  and  _454
REMARK  183  A    between atoms: _454  and  _455
REMARK  184  A    between atoms: _454  and  _457
REMARK  185  A    between atoms: _457  and  _458
REMARK  186  A    between atoms: _458  and  _459
REMARK  187  A    between atoms: _464  and  _466
REMARK  188  A    between atoms: _466  and  _467
REMARK  189  A    between atoms: _466  and  _469
REMARK  190  A    between atoms: _469  and  _470
REMARK  191  A    between atoms: _470  and  _471
REMARK  192  A    between atoms: _471  and  _472
REMARK  193  A    between atoms: _481  and  _483
REMARK  194  A    between atoms: _483  and  _484
REMARK  195  A    between atoms: _483  and  _486
REMARK  196  A    between atoms: _486  and  _487
REMARK  197  A    between atoms: _487  and  _488
REMARK  198  A    between atoms: _490  and  _492
REMARK  199  A    between atoms: _492  and  _493
REMARK  200  A    between atoms: _492  and  _495
REMARK  201  A    between atoms: _495  and  _496
REMARK  202  A    between atoms: _501  and  _502
REMARK  203  A    between atoms: _504  and  _506
REMARK  204  A    between atoms: _506  and  _507
REMARK  205  A    between atoms: _509  and  _511
REMARK  206  A    between atoms: _511  and  _512
REMARK  207  A    between atoms: _511  and  _514
REMARK  208  A    between atoms: _514  and  _515
REMARK  209  A    between atoms: _515  and  _869
REMARK  210  A    between atoms: _516  and  _518
REMARK  211  A    between atoms: _518  and  _519
REMARK  212  A    between atoms: _518  and  _521
REMARK  213  A    between atoms: _521  and  _522
REMARK  214  A    between atoms: _525  and  _527
REMARK  215  A    between atoms: _527  and  _528
REMARK  216  A    between atoms: _527  and  _530
REMARK  217  A    between atoms: _530  and  _531
REMARK  218  A    between atoms: _531  and  _532
REMARK  219  A    between atoms: _537  and  _539
REMARK  220  A    between atoms: _539  and  _540
REMARK  221  A    between atoms: _539  and  _542
REMARK  222  A    between atoms: _542  and  _543
REMARK  223  A    between atoms: _545  and  _547
REMARK  224  A    between atoms: _547  and  _548
REMARK  225  A    between atoms: _551  and  _553
REMARK  226  A    between atoms: _553  and  _554
REMARK  227  A    between atoms: _553  and  _556
REMARK  228  A    between atoms: _556  and  _557
REMARK  229  A    between atoms: _562  and  _563
REMARK  230  A    between atoms: _565  and  _567
REMARK  231  A    between atoms: _567  and  _568
REMARK  232  A    between atoms: _567  and  _570
REMARK  233  A    between atoms: _570  and  _571
REMARK  234  A    between atoms: _576  and  _577
REMARK  235  A    between atoms: _579  and  _581
REMARK  236  A    between atoms: _581  and  _582
REMARK  237  A    between atoms: _581  and  _584
REMARK  238  A    between atoms: _584  and  _585
REMARK  239  A    between atoms: _588  and  _590
REMARK  240  A    between atoms: _590  and  _591
REMARK  241  A    between atoms: _594  and  _596
REMARK  242  A    between atoms: _596  and  _597
REMARK  243  A    between atoms: _596  and  _599
REMARK  244  A    between atoms: _599  and  _600
REMARK  245  A    between atoms: _610  and  _612
REMARK  246  A    between atoms: _612  and  _613
REMARK  247  A    between atoms: _616  and  _618
REMARK  248  A    between atoms: _618  and  _619
REMARK  249  A    between atoms: _622  and  _624
REMARK  250  A    between atoms: _624  and  _625
REMARK  251  A    between atoms: _624  and  _627
REMARK  252  A    between atoms: _627  and  _628
REMARK  253  A    between atoms: _628  and  _629
REMARK  254  A    between atoms: _634  and  _636
REMARK  255  A    between atoms: _636  and  _637
REMARK  256  A    between atoms: _636  and  _639
REMARK  257  A    between atoms: _639  and  _640
REMARK  258  A    between atoms: _643  and  _645
REMARK  259  A    between atoms: _645  and  _646
REMARK  260  A    between atoms: _645  and  _648
REMARK  261  A    between atoms: _648  and  _649
REMARK  262  A    between atoms: _652  and  _654
REMARK  263  A    between atoms: _654  and  _655
REMARK  264  A    between atoms: _654  and  _657
REMARK  265  A    between atoms: _657  and  _658
REMARK  266  A    between atoms: _658  and  _659
REMARK  267  A    between atoms: _664  and  _666
REMARK  268  A    between atoms: _666  and  _667
REMARK  269  A    between atoms: _666  and  _669
REMARK  270  A    between atoms: _669  and  _670
REMARK  271  A    between atoms: _670  and  _671
REMARK  272  A    between atoms: _671  and  _672
REMARK  273  A    between atoms: _681  and  _683
REMARK  274  A    between atoms: _683  and  _684
REMARK  275  A    between atoms: _683  and  _686
REMARK  276  A    between atoms: _686  and  _687
REMARK  277  A    between atoms: _687  and  _688
REMARK  278  A    between atoms: _688  and  _689
REMARK  279  A    between atoms: _689  and  _690
REMARK  280  A    between atoms: _694  and  _696
REMARK  281  A    between atoms: _696  and  _697
REMARK  282  A    between atoms: _696  and  _699
REMARK  283  A    between atoms: _699  and  _700
REMARK  284  A    between atoms: _710  and  _712
REMARK  285  A    between atoms: _712  and  _713
REMARK  286  A    between atoms: _712  and  _715
REMARK  287  A    between atoms: _715  and  _716
REMARK  288  A    between atoms: _716  and  _717
REMARK  289  A    between atoms: _720  and  _722
REMARK  290  A    between atoms: _722  and  _723
REMARK  291  A    between atoms: _726  and  _728
REMARK  292  A    between atoms: _728  and  _729
REMARK  293  A    between atoms: _732  and  _734
REMARK  294  A    between atoms: _734  and  _735
REMARK  295  A    between atoms: _734  and  _737
REMARK  296  A    between atoms: _737  and  _738
REMARK  297  A    between atoms: _738  and  _739
REMARK  298  A    between atoms: _739  and  _740
REMARK  299  A    between atoms: _749  and  _751
REMARK  300  A    between atoms: _751  and  _752
REMARK  301  A    between atoms: _751  and  _754
REMARK  302  A    between atoms: _754  and  _755
REMARK  303  A    between atoms: _755  and  _756
REMARK  304  A    between atoms: _759  and  _761
REMARK  305  A    between atoms: _761  and  _762
REMARK  306  A    between atoms: _765  and  _767
REMARK  307  A    between atoms: _767  and  _768
REMARK  308  A    between atoms: _767  and  _770
REMARK  309  A    between atoms: _770  and  _771
REMARK  310  A    between atoms: _771  and  _772
REMARK  311  A    between atoms: _775  and  _777
REMARK  312  A    between atoms: _777  and  _778
REMARK  313  A    between atoms: _777  and  _780
REMARK  314  A    between atoms: _780  and  _781
REMARK  315  A    between atoms: _781  and  _782
REMARK  316  A    between atoms: _787  and  _789
REMARK  317  A    between atoms: _789  and  _790
REMARK  318  A    between atoms: _789  and  _792
REMARK  319  A    between atoms: _792  and  _793
REMARK  320  A    between atoms: _803  and  _805
REMARK  321  A    between atoms: _805  and  _806
REMARK  322  A    between atoms: _805  and  _808
REMARK  323  A    between atoms: _808  and  _809
REMARK  324  A    between atoms: _809  and  _810
REMARK  325  A    between atoms: _810  and  _811
REMARK  326  A    between atoms: _820  and  _822
REMARK  327  A    between atoms: _822  and  _823
REMARK  328  A    between atoms: _826  and  _828
REMARK  329  A    between atoms: _828  and  _829
REMARK  330  A    between atoms: _828  and  _831
REMARK  331  A    between atoms: _831  and  _832
REMARK  332  A    between atoms: _837  and  _838
REMARK  333  A    between atoms: _840  and  _842
REMARK  334  A    between atoms: _842  and  _843
REMARK  335  A    between atoms: _842  and  _845
REMARK  336  A    between atoms: _845  and  _846
REMARK  337  A    between atoms: _849  and  _851
REMARK  338  A    between atoms: _851  and  _852
REMARK  339  A    between atoms: _854  and  _856
REMARK  340  A    between atoms: _856  and  _857
REMARK  341  A    between atoms: _856  and  _859
REMARK  342  A    between atoms: _859  and  _860
REMARK  343  A    between atoms: _863  and  _865
REMARK  344  A    between atoms: _865  and  _866
REMARK  345  A    between atoms: _865  and  _868
REMARK  346  A    between atoms: _868  and  _869
REMARK  347  A    between atoms: _870  and  _872
REMARK  348  A    between atoms: _872  and  _873
REMARK  349  A    between atoms: _872  and  _875
REMARK  350  A    between atoms: _878  and  _880
REMARK  351  A    between atoms: _880  and  _881
REMARK  352  A    between atoms: _880  and  _883
REMARK  353  A    between atoms: _883  and  _884
REMARK  354  A    between atoms: _884  and  _885
REMARK  355  A    between atoms: _888  and  _890
REMARK  356  A    between atoms: _890  and  _891
REMARK  357  A    between atoms: _890  and  _893
REMARK  358  A    between atoms: _893  and  _894
REMARK  359  A    between atoms: _904  and  _906
REMARK  360  A    between atoms: _906  and  _907
REMARK  361  A    between atoms: _906  and  _909
REMARK  362  A    between atoms: _909  and  _910
REMARK  363  A    between atoms: _913  and  _915
REMARK  364  A    between atoms: _915  and  _916
REMARK  365  A    between atoms: _915  and  _918
REMARK  366  A    between atoms: _918  and  _919
REMARK  367  A    between atoms: _919  and  _920
REMARK  368  A    between atoms: _920  and  _921
REMARK  369  A    between atoms: _930  and  _932
REMARK  370  A    between atoms: _932  and  _933
REMARK  371  A    between atoms: _932  and  _935
REMARK  372  A    between atoms: _935  and  _936
REMARK  373  A    between atoms: _941  and  _942
REMARK  374  A    between atoms: _944  and  _946
REMARK  375  A    between atoms: _946  and  _947
REMARK  376  A    between atoms: _946  and  _949
REMARK  377  A    between atoms: _949  and  _950
REMARK                            x       y       z     vdW  Elec       q    Type
REMARK                         _______ _______ _______ _____ _____    ______ ____
ROOT
ATOM      1  O   HOH     1      19.005  26.798  44.366  0.00  0.00    +0.000 OA
ENDROOT
TORSDOF 0
REMARK  Name = ../refined-set-2016/1xr9/1xr9_pocket.pdb
REMARK  377 active torsions:
REMARK  status: ('A' for Active; 'I' for Inactive)
REMARK    1  A    between atoms: _1  and  _3
REMARK    2  A    between atoms: _3  and  _4
REMARK    3  A    between atoms: _3  and  _6
REMARK    4  A    between atoms: _6  and  _7
REMARK    5  A    between atoms: _7  and  _8
REMARK    6  A    between atoms: _10  and  _12
REMARK    7  A    between atoms: _12  and  _13
REMARK    8  A    between atoms: _12  and  _15
REMARK    9  A    between atoms: _15  and  _16
REMARK   10  A    between atoms: _16  and  _17
REMARK   11  A    between atoms: _17  and  _18
REMARK   12  A    between atoms: _27  and  _29
REMARK   13  A    between atoms: _29  and  _30
REMARK   14  A    between atoms: _29  and  _32
REMARK   15  A    between atoms: _32  and  _33
REMARK   16  A    between atoms: _38  and  _39
REMARK   17  A    between atoms: _41  and  _43
REMARK   18  A    between atoms: _43  and  _44
REMARK   19  A    between atoms: _43  and  _46
REMARK   20  A    between atoms: _46  and  _47
REMARK   21  A    between atoms: _53  and  _55
REMARK   22  A    between atoms: _55  and  _56
REMARK   23  A    between atoms: _55  and  _58
REMARK   24  A    between atoms: _58  and  _59
REMARK   25  A    between atoms: _64  and  _65
REMARK   26  A    between atoms: _67  and  _69
REMARK   27  A    between atoms: _69  and  _70
REMARK   28  A    between atoms: _69  and  _72
REMARK   29  A    between atoms: _72  and  _73
REMARK   30  A    between atoms: _79  and  _81
REMARK   31  A    between atoms: _81  and  _82
REMARK   32  A    between atoms: _85  and  _87
REMARK   33  A    between atoms: _87  and  _88
REMARK   34  A    between atoms: _87  and  _90
REMARK   35  A    between atoms: _93  and  _95
REMARK   36  A    between atoms: _95  and  _96
REMARK   37  A    between atoms: _98  and  _100
REMARK   38  A    between atoms: _100  and  _101
REMARK   39  A    between atoms: _100  and  _103
REMARK   40  A    between atoms: _106  and  _108
REMARK   41  A    between atoms: _108  and  _109
REMARK   42  A    between atoms: _108  and  _111
REMARK   43  A    between atoms: _111  and  _112
REMARK   44  A    between atoms: _118  and  _120
REMARK   45  A    between atoms: _120  and  _121
REMARK   46  A    between atoms: _120  and  _123
REMARK   47  A    between atoms: _126  and  _128
REMARK   48  A    between atoms: _128  and  _129
REMARK   49  A    between atoms: _128  and  _131
REMARK   50  A    between atoms: _131  and  _132
REMARK   51  A    between atoms: _138  and  _140
REMARK   52  A    between atoms: _140  and  _141
REMARK   53  A    between atoms: _140  and  _143
REMARK   54  A    between atoms: _143  and  _144
REMARK   55  A    between atoms: _144  and  _145
REMARK   56  A    between atoms: _147  and  _149
REMARK   57  A    between atoms: _149  and  _150
REMARK   58  A    between atoms: _149  and  _152
REMARK   59  A    between atoms: _152  and  _153
REMARK   60  A    between atoms: _156  and  _158
REMARK   61  A    between atoms: _158  and  _159
REMARK   62  A    between atoms: _158  and  _161
REMARK   63  A    between atoms: _161  and  _162
REMARK   64  A    between atoms: _162  and  _163
REMARK   65  A    between atoms: _166  and  _168
REMARK   66  A    between atoms: _168  and  _169
REMARK   67  A    between atoms: _168  and  _171
REMARK   68  A    between atoms: _171  and  _172
REMARK   69  A    between atoms: _172  and  _173
REMARK   70  A    between atoms: _176  and  _178
REMARK   71  A    between atoms: _178  and  _179
REMARK   72  A    between atoms: _178  and  _181
REMARK   73  A    between atoms: _181  and  _182
REMARK   74  A    between atoms: _187  and  _188
REMARK   75  A    between atoms: _190  and  _192
REMARK   76  A    between atoms: _192  and  _193
REMARK   77  A    between atoms: _192  and  _195
REMARK   78  A    between atoms: _195  and  _196
REMARK   79  A    between atoms: _206  and  _208
REMARK   80  A    between atoms: _208  and  _209
REMARK   81  A    between atoms: _208  and  _211
REMARK   82  A    between atoms: _211  and  _212
REMARK   83  A    between atoms: _215  and  _217
REMARK   84  A    between atoms: _217  and  _218
REMARK   85  A    between atoms: _217  and  _220
REMARK   86  A    between atoms: _220  and  _221
REMARK   87  A    between atoms: _221  and  _222
REMARK   88  A    between atoms: _222  and  _223
REMARK   89  A    between atoms: _232  and  _234
REMARK   90  A    between atoms: _234  and  _235
REMARK   91  A    between atoms: _234  and  _237
REMARK   92  A    between atoms: _237  and  _238
REMARK   93  A    between atoms: _238  and  _239
REMARK   94  A    between atoms: _242  and  _244
REMARK   95  A    between atoms: _244  and  _245
REMARK   96  A    between atoms: _244  and  _247
REMARK   97  A    between atoms: _247  and  _248
REMARK   98  A    between atoms: _251  and  _253
REMARK   99  A    between atoms: _253  and  _254
REMARK  100  A    between atoms: _253  and  _256
REMARK  101  A    between atoms: _256  and  _257
REMARK  102  A    between atoms: _257  and  _258
REMARK  103  A    between atoms: _263  and  _265
REMARK  104  A    between atoms: _265  and  _266
REMARK  105  A    between atoms: _265  and  _268
REMARK  106  A    between atoms: _268  and  _269
REMARK  107  A    between atoms: _272  and  _274
REMARK  108  A    between atoms: _274  and  _275
REMARK  109  A    between atoms: _274  and  _277
REMARK  110  A    between atoms: _277  and  _278
REMARK  111  A    between atoms: _280  and  _282
REMARK  112  A    between atoms: _282  and  _283
REMARK  113  A    between atoms: _282  and  _285
REMARK  114  A    between atoms: _285  and  _286
REMARK  115  A    between atoms: _286  and  _287
REMARK  116  A    between atoms: _287  and  _288
REMARK  117  A    between atoms: _288  and  _289
REMARK  118  A    between atoms: _293  and  _295
REMARK  119  A    between atoms: _295  and  _296
REMARK  120  A    between atoms: _295  and  _298
REMARK  121  A    between atoms: _298  and  _299
REMARK  122  A    between atoms: _302  and  _304
REMARK  123  A    between atoms: _304  and  _305
REMARK  124  A    between atoms: _304  and  _307
REMARK  125  A    between atoms: _307  and  _308
REMARK  126  A    between atoms: _313  and  _315
REMARK  127  A    between atoms: _315  and  _316
REMARK  128  A    between atoms: _315  and  _318
REMARK  129  A    between atoms: _318  and  _319
REMARK  130  A    between atoms: _319  and  _320
REMARK  131  A    between atoms: _325  and  _327
REMARK  132  A    between atoms: _327  and  _328
REMARK  133  A    between atoms: _327  and  _330
REMARK  134  A    between atoms: _330  and  _331
REMARK  135  A    between atoms: _334  and  _336
REMARK  136  A    between atoms: _336  and  _337
REMARK  137  A    between atoms: _336  and  _339
REMARK  138  A    between atoms: _339  and  _340
REMARK  139  A    between atoms: _345  and  _346
REMARK  140  A    between atoms: _348  and  _350
REMARK  141  A    between atoms: _350  and  _351
REMARK  142  A    between atoms: _350  and  _353
REMARK  143  A    between atoms: _353  and  _354
REMARK  144  A    between atoms: _354  and  _355
REMARK  145  A    between atoms: _355  and  _356
REMARK  146  A    between atoms: _365  and  _367
REMARK  147  A    between atoms: _367  and  _368
REMARK  148  A    between atoms: _367  and  _370
REMARK  149  A    between atoms: _370  and  _371
REMARK  150  A    between atoms: _371  and  _372
REMARK  151  A    between atoms: _375  and  _377
REMARK  152  A    between atoms: _377  and  _378
REMARK  153  A    between atoms: _377  and  _380
REMARK  154  A    between atoms: _380  and  _381
REMARK  155  A    between atoms: _383  and  _385
REMARK  156  A    between atoms: _385  and  _386
REMARK  157  A    between atoms: _385  and  _388
REMARK  158  A    between atoms: _388  and  _389
REMARK  159  A    between atoms: _392  and  _394
REMARK  160  A    between atoms: _394  and  _395
REMARK  161  A    between atoms: _394  and  _397
REMARK  162  A    between atoms: _397  and  _398
REMARK  163  A    between atoms: _398  and  _399
REMARK  164  A    between atoms: _399  and  _400
REMARK  165  A    between atoms: _409  and  _411
REMARK  166  A    between atoms: _411  and  _412
REMARK  167  A    between atoms: _411  and  _414
REMARK  168  A    between atoms: _414  and  _415
REMARK  169  A    between atoms: _420  and  _422
REMARK  170  A    between atoms: _422  and  _423
REMARK  171  A    between atoms: _422  and  _425
REMARK  172  A    between atoms: _425  and  _426
REMARK  173  A    between atoms: _429  and  _431
REMARK  174  A    between atoms: _431  and  _432
REMARK  175  A    between atoms: _431  and  _434
REMARK  176  A    between atoms: _434  and  _435
REMARK  177  A    between atoms: _440  and  _441
REMARK  178  A    between atoms: _443  and  _445
REMARK  179  A    between atoms: _445  and  _446
REMARK  180  A    between atoms: _445  and  _448
REMARK  181  A    between atoms: _448  and  _449
REMARK  182  A    between atoms: _452  and  _454
REMARK  183  A    between atoms: _454  and  _455
REMARK  184  A    between atoms: _454  and  _457
REMARK  185  A    between atoms: _457  and  _458
REMARK  186  A    between atoms: _458  and  _459
REMARK  187  A    between atoms: _464  and  _466
REMARK  188  A    between atoms: _466  and  _467
REMARK  189  A    between atoms: _466  and  _469
REMARK  190  A    between atoms: _469  and  _470
REMARK  191  A    between atoms: _470  and  _471
REMARK  192  A    between atoms: _471  and  _472
REMARK  193  A    between atoms: _481  and  _483
REMARK  194  A    between atoms: _483  and  _484
REMARK  195  A    between atoms: _483  and  _486
REMARK  196  A    between atoms: _486  and  _487
REMARK  197  A    between atoms: _487  and  _488
REMARK  198  A    between atoms: _490  and  _492
REMARK  199  A    between atoms: _492  and  _493
REMARK  200  A    between atoms: _492  and  _495
REMARK  201  A    between atoms: _495  and  _496
REMARK  202  A    between atoms: _501  and  _502
REMARK  203  A    between atoms: _504  and  _506
REMARK  204  A    between atoms: _506  and  _507
REMARK  205  A    between atoms: _509  and  _511
REMARK  206  A    between atoms: _511  and  _512
REMARK  207  A    between atoms: _511  and  _514
REMARK  208  A    between atoms: _514  and  _515
REMARK  209  A    between atoms: _515  and  _869
REMARK  210  A    between atoms: _516  and  _518
REMARK  211  A    between atoms: _518  and  _519
REMARK  212  A    between atoms: _518  and  _521
REMARK  213  A    between atoms: _521  and  _522
REMARK  214  A    between atoms: _525  and  _527
REMARK  215  A    between atoms: _527  and  _528
REMARK  216  A    between atoms: _527  and  _530
REMARK  217  A    between atoms: _530  and  _531
REMARK  218  A    between atoms: _531  and  _532
REMARK  219  A    between atoms: _537  and  _539
REMARK  220  A    between atoms: _539  and  _540
REMARK  221  A    between atoms: _539  and  _542
REMARK  222  A    between atoms: _542  and  _543
REMARK  223  A    between atoms: _545  and  _547
REMARK  224  A    between atoms: _547  and  _548
REMARK  225  A    between atoms: _551  and  _553
REMARK  226  A    between atoms: _553  and  _554
REMARK  227  A    between atoms: _553  and  _556
REMARK  228  A    between atoms: _556  and  _557
REMARK  229  A    between atoms: _562  and  _563
REMARK  230  A    between atoms: _565  and  _567
REMARK  231  A    between atoms: _567  and  _568
REMARK  232  A    between atoms: _567  and  _570
REMARK  233  A    between atoms: _570  and  _571
REMARK  234  A    between atoms: _576  and  _577
REMARK  235  A    between atoms: _579  and  _581
REMARK  236  A    between atoms: _581  and  _582
REMARK  237  A    between atoms: _581  and  _584
REMARK  238  A    between atoms: _584  and  _585
REMARK  239  A    between atoms: _588  and  _590
REMARK  240  A    between atoms: _590  and  _591
REMARK  241  A    between atoms: _594  and  _596
REMARK  242  A    between atoms: _596  and  _597
REMARK  243  A    between atoms: _596  and  _599
REMARK  244  A    between atoms: _599  and  _600
REMARK  245  A    between atoms: _610  and  _612
REMARK  246  A    between atoms: _612  and  _613
REMARK  247  A    between atoms: _616  and  _618
REMARK  248  A    between atoms: _618  and  _619
REMARK  249  A    between atoms: _622  and  _624
REMARK  250  A    between atoms: _624  and  _625
REMARK  251  A    between atoms: _624  and  _627
REMARK  252  A    between atoms: _627  and  _628
REMARK  253  A    between atoms: _628  and  _629
REMARK  254  A    between atoms: _634  and  _636
REMARK  255  A    between atoms: _636  and  _637
REMARK  256  A    between atoms: _636  and  _639
REMARK  257  A    between atoms: _639  and  _640
REMARK  258  A    between atoms: _643  and  _645
REMARK  259  A    between atoms: _645  and  _646
REMARK  260  A    between atoms: _645  and  _648
REMARK  261  A    between atoms: _648  and  _649
REMARK  262  A    between atoms: _652  and  _654
REMARK  263  A    between atoms: _654  and  _655
REMARK  264  A    between atoms: _654  and  _657
REMARK  265  A    between atoms: _657  and  _658
REMARK  266  A    between atoms: _658  and  _659
REMARK  267  A    between atoms: _664  and  _666
REMARK  268  A    between atoms: _666  and  _667
REMARK  269  A    between atoms: _666  and  _669
REMARK  270  A    between atoms: _669  and  _670
REMARK  271  A    between atoms: _670  and  _671
REMARK  272  A    between atoms: _671  and  _672
REMARK  273  A    between atoms: _681  and  _683
REMARK  274  A    between atoms: _683  and  _684
REMARK  275  A    between atoms: _683  and  _686
REMARK  276  A    between atoms: _686  and  _687
REMARK  277  A    between atoms: _687  and  _688
REMARK  278  A    between atoms: _688  and  _689
REMARK  279  A    between atoms: _689  and  _690
REMARK  280  A    between atoms: _694  and  _696
REMARK  281  A    between atoms: _696  and  _697
REMARK  282  A    between atoms: _696  and  _699
REMARK  283  A    between atoms: _699  and  _700
REMARK  284  A    between atoms: _710  and  _712
REMARK  285  A    between atoms: _712  and  _713
REMARK  286  A    between atoms: _712  and  _715
REMARK  287  A    between atoms: _715  and  _716
REMARK  288  A    between atoms: _716  and  _717
REMARK  289  A    between atoms: _720  and  _722
REMARK  290  A    between atoms: _722  and  _723
REMARK  291  A    between atoms: _726  and  _728
REMARK  292  A    between atoms: _728  and  _729
REMARK  293  A    between atoms: _732  and  _734
REMARK  294  A    between atoms: _734  and  _735
REMARK  295  A    between atoms: _734  and  _737
REMARK  296  A    between atoms: _737  and  _738
REMARK  297  A    between atoms: _738  and  _739
REMARK  298  A    between atoms: _739  and  _740
REMARK  299  A    between atoms: _749  and  _751
REMARK  300  A    between atoms: _751  and  _752
REMARK  301  A    between atoms: _751  and  _754
REMARK  302  A    between atoms: _754  and  _755
REMARK  303  A    between atoms: _755  and  _756
REMARK  304  A    between atoms: _759  and  _761
REMARK  305  A    between atoms: _761  and  _762
REMARK  306  A    between atoms: _765  and  _767
REMARK  307  A    between atoms: _767  and  _768
REMARK  308  A    between atoms: _767  and  _770
REMARK  309  A    between atoms: _770  and  _771
REMARK  310  A    between atoms: _771  and  _772
REMARK  311  A    between atoms: _775  and  _777
REMARK  312  A    between atoms: _777  and  _778
REMARK  313  A    between atoms: _777  and  _780
REMARK  314  A    between atoms: _780  and  _781
REMARK  315  A    between atoms: _781  and  _782
REMARK  316  A    between atoms: _787  and  _789
REMARK  317  A    between atoms: _789  and  _790
REMARK  318  A    between atoms: _789  and  _792
REMARK  319  A    between atoms: _792  and  _793
REMARK  320  A    between atoms: _803  and  _805
REMARK  321  A    between atoms: _805  and  _806
REMARK  322  A    between atoms: _805  and  _808
REMARK  323  A    between atoms: _808  and  _809
REMARK  324  A    between atoms: _809  and  _810
REMARK  325  A    between atoms: _810  and  _811
REMARK  326  A    between atoms: _820  and  _822
REMARK  327  A    between atoms: _822  and  _823
REMARK  328  A    between atoms: _826  and  _828
REMARK  329  A    between atoms: _828  and  _829
REMARK  330  A    between atoms: _828  and  _831
REMARK  331  A    between atoms: _831  and  _832
REMARK  332  A    between atoms: _837  and  _838
REMARK  333  A    between atoms: _840  and  _842
REMARK  334  A    between atoms: _842  and  _843
REMARK  335  A    between atoms: _842  and  _845
REMARK  336  A    between atoms: _845  and  _846
REMARK  337  A    between atoms: _849  and  _851
REMARK  338  A    between atoms: _851  and  _852
REMARK  339  A    between atoms: _854  and  _856
REMARK  340  A    between atoms: _856  and  _857
REMARK  341  A    between atoms: _856  and  _859
REMARK  342  A    between atoms: _859  and  _860
REMARK  343  A    between atoms: _863  and  _865
REMARK  344  A    between atoms: _865  and  _866
REMARK  345  A    between atoms: _865  and  _868
REMARK  346  A    between atoms: _868  and  _869
REMARK  347  A    between atoms: _870  and  _872
REMARK  348  A    between atoms: _872  and  _873
REMARK  349  A    between atoms: _872  and  _875
REMARK  350  A    between atoms: _878  and  _880
REMARK  351  A    between atoms: _880  and  _881
REMARK  352  A    between atoms: _880  and  _883
REMARK  353  A    between atoms: _883  and  _884
REMARK  354  A    between atoms: _884  and  _885
REMARK  355  A    between atoms: _888  and  _890
REMARK  356  A    between atoms: _890  and  _891
REMARK  357  A    between atoms: _890  and  _893
REMARK  358  A    between atoms: _893  and  _894
REMARK  359  A    between atoms: _904  and  _906
REMARK  360  A    between atoms: _906  and  _907
REMARK  361  A    between atoms: _906  and  _909
REMARK  362  A    between atoms: _909  and  _910
REMARK  363  A    between atoms: _913  and  _915
REMARK  364  A    between atoms: _915  and  _916
REMARK  365  A    between atoms: _915  and  _918
REMARK  366  A    between atoms: _918  and  _919
REMARK  367  A    between atoms: _919  and  _920
REMARK  368  A    between atoms: _920  and  _921
REMARK  369  A    between atoms: _930  and  _932
REMARK  370  A    between atoms: _932  and  _933
REMARK  371  A    between atoms: _932  and  _935
REMARK  372  A    between atoms: _935  and  _936
REMARK  373  A    between atoms: _941  and  _942
REMARK  374  A    between atoms: _944  and  _946
REMARK  375  A    between atoms: _946  and  _947
REMARK  376  A    between atoms: _946  and  _949
REMARK  377  A    between atoms: _949  and  _950
REMARK                            x       y       z     vdW  Elec       q    Type
REMARK                         _______ _______ _______ _____ _____    ______ ____
ROOT
ATOM      1  O   HOH     1      19.555  22.476  42.900  0.00  0.00    +0.000 OA
ENDROOT
TORSDOF 0
REMARK  Name = ../refined-set-2016/1xr9/1xr9_pocket.pdb
REMARK  377 active torsions:
REMARK  status: ('A' for Active; 'I' for Inactive)
REMARK    1  A    between atoms: _1  and  _3
REMARK    2  A    between atoms: _3  and  _4
REMARK    3  A    between atoms: _3  and  _6
REMARK    4  A    between atoms: _6  and  _7
REMARK    5  A    between atoms: _7  and  _8
REMARK    6  A    between atoms: _10  and  _12
REMARK    7  A    between atoms: _12  and  _13
REMARK    8  A    between atoms: _12  and  _15
REMARK    9  A    between atoms: _15  and  _16
REMARK   10  A    between atoms: _16  and  _17
REMARK   11  A    between atoms: _17  and  _18
REMARK   12  A    between atoms: _27  and  _29
REMARK   13  A    between atoms: _29  and  _30
REMARK   14  A    between atoms: _29  and  _32
REMARK   15  A    between atoms: _32  and  _33
REMARK   16  A    between atoms: _38  and  _39
REMARK   17  A    between atoms: _41  and  _43
REMARK   18  A    between atoms: _43  and  _44
REMARK   19  A    between atoms: _43  and  _46
REMARK   20  A    between atoms: _46  and  _47
REMARK   21  A    between atoms: _53  and  _55
REMARK   22  A    between atoms: _55  and  _56
REMARK   23  A    between atoms: _55  and  _58
REMARK   24  A    between atoms: _58  and  _59
REMARK   25  A    between atoms: _64  and  _65
REMARK   26  A    between atoms: _67  and  _69
REMARK   27  A    between atoms: _69  and  _70
REMARK   28  A    between atoms: _69  and  _72
REMARK   29  A    between atoms: _72  and  _73
REMARK   30  A    between atoms: _79  and  _81
REMARK   31  A    between atoms: _81  and  _82
REMARK   32  A    between atoms: _85  and  _87
REMARK   33  A    between atoms: _87  and  _88
REMARK   34  A    between atoms: _87  and  _90
REMARK   35  A    between atoms: _93  and  _95
REMARK   36  A    between atoms: _95  and  _96
REMARK   37  A    between atoms: _98  and  _100
REMARK   38  A    between atoms: _100  and  _101
REMARK   39  A    between atoms: _100  and  _103
REMARK   40  A    between atoms: _106  and  _108
REMARK   41  A    between atoms: _108  and  _109
REMARK   42  A    between atoms: _108  and  _111
REMARK   43  A    between atoms: _111  and  _112
REMARK   44  A    between atoms: _118  and  _120
REMARK   45  A    between atoms: _120  and  _121
REMARK   46  A    between atoms: _120  and  _123
REMARK   47  A    between atoms: _126  and  _128
REMARK   48  A    between atoms: _128  and  _129
REMARK   49  A    between atoms: _128  and  _131
REMARK   50  A    between atoms: _131  and  _132
REMARK   51  A    between atoms: _138  and  _140
REMARK   52  A    between atoms: _140  and  _141
REMARK   53  A    between atoms: _140  and  _143
REMARK   54  A    between atoms: _143  and  _144
REMARK   55  A    between atoms: _144  and  _145
REMARK   56  A    between atoms: _147  and  _149
REMARK   57  A    between atoms: _149  and  _150
REMARK   58  A    between atoms: _149  and  _152
REMARK   59  A    between atoms: _152  and  _153
REMARK   60  A    between atoms: _156  and  _158
REMARK   61  A    between atoms: _158  and  _159
REMARK   62  A    between atoms: _158  and  _161
REMARK   63  A    between atoms: _161  and  _162
REMARK   64  A    between atoms: _162  and  _163
REMARK   65  A    between atoms: _166  and  _168
REMARK   66  A    between atoms: _168  and  _169
REMARK   67  A    between atoms: _168  and  _171
REMARK   68  A    between atoms: _171  and  _172
REMARK   69  A    between atoms: _172  and  _173
REMARK   70  A    between atoms: _176  and  _178
REMARK   71  A    between atoms: _178  and  _179
REMARK   72  A    between atoms: _178  and  _181
REMARK   73  A    between atoms: _181  and  _182
REMARK   74  A    between atoms: _187  and  _188
REMARK   75  A    between atoms: _190  and  _192
REMARK   76  A    between atoms: _192  and  _193
REMARK   77  A    between atoms: _192  and  _195
REMARK   78  A    between atoms: _195  and  _196
REMARK   79  A    between atoms: _206  and  _208
REMARK   80  A    between atoms: _208  and  _209
REMARK   81  A    between atoms: _208  and  _211
REMARK   82  A    between atoms: _211  and  _212
REMARK   83  A    between atoms: _215  and  _217
REMARK   84  A    between atoms: _217  and  _218
REMARK   85  A    between atoms: _217  and  _220
REMARK   86  A    between atoms: _220  and  _221
REMARK   87  A    between atoms: _221  and  _222
REMARK   88  A    between atoms: _222  and  _223
REMARK   89  A    between atoms: _232  and  _234
REMARK   90  A    between atoms: _234  and  _235
REMARK   91  A    between atoms: _234  and  _237
REMARK   92  A    between atoms: _237  and  _238
REMARK   93  A    between atoms: _238  and  _239
REMARK   94  A    between atoms: _242  and  _244
REMARK   95  A    between atoms: _244  and  _245
REMARK   96  A    between atoms: _244  and  _247
REMARK   97  A    between atoms: _247  and  _248
REMARK   98  A    between atoms: _251  and  _253
REMARK   99  A    between atoms: _253  and  _254
REMARK  100  A    between atoms: _253  and  _256
REMARK  101  A    between atoms: _256  and  _257
REMARK  102  A    between atoms: _257  and  _258
REMARK  103  A    between atoms: _263  and  _265
REMARK  104  A    between atoms: _265  and  _266
REMARK  105  A    between atoms: _265  and  _268
REMARK  106  A    between atoms: _268  and  _269
REMARK  107  A    between atoms: _272  and  _274
REMARK  108  A    between atoms: _274  and  _275
REMARK  109  A    between atoms: _274  and  _277
REMARK  110  A    between atoms: _277  and  _278
REMARK  111  A    between atoms: _280  and  _282
REMARK  112  A    between atoms: _282  and  _283
REMARK  113  A    between atoms: _282  and  _285
REMARK  114  A    between atoms: _285  and  _286
REMARK  115  A    between atoms: _286  and  _287
REMARK  116  A    between atoms: _287  and  _288
REMARK  117  A    between atoms: _288  and  _289
REMARK  118  A    between atoms: _293  and  _295
REMARK  119  A    between atoms: _295  and  _296
REMARK  120  A    between atoms: _295  and  _298
REMARK  121  A    between atoms: _298  and  _299
REMARK  122  A    between atoms: _302  and  _304
REMARK  123  A    between atoms: _304  and  _305
REMARK  124  A    between atoms: _304  and  _307
REMARK  125  A    between atoms: _307  and  _308
REMARK  126  A    between atoms: _313  and  _315
REMARK  127  A    between atoms: _315  and  _316
REMARK  128  A    between atoms: _315  and  _318
REMARK  129  A    between atoms: _318  and  _319
REMARK  130  A    between atoms: _319  and  _320
REMARK  131  A    between atoms: _325  and  _327
REMARK  132  A    between atoms: _327  and  _328
REMARK  133  A    between atoms: _327  and  _330
REMARK  134  A    between atoms: _330  and  _331
REMARK  135  A    between atoms: _334  and  _336
REMARK  136  A    between atoms: _336  and  _337
REMARK  137  A    between atoms: _336  and  _339
REMARK  138  A    between atoms: _339  and  _340
REMARK  139  A    between atoms: _345  and  _346
REMARK  140  A    between atoms: _348  and  _350
REMARK  141  A    between atoms: _350  and  _351
REMARK  142  A    between atoms: _350  and  _353
REMARK  143  A    between atoms: _353  and  _354
REMARK  144  A    between atoms: _354  and  _355
REMARK  145  A    between atoms: _355  and  _356
REMARK  146  A    between atoms: _365  and  _367
REMARK  147  A    between atoms: _367  and  _368
REMARK  148  A    between atoms: _367  and  _370
REMARK  149  A    between atoms: _370  and  _371
REMARK  150  A    between atoms: _371  and  _372
REMARK  151  A    between atoms: _375  and  _377
REMARK  152  A    between atoms: _377  and  _378
REMARK  153  A    between atoms: _377  and  _380
REMARK  154  A    between atoms: _380  and  _381
REMARK  155  A    between atoms: _383  and  _385
REMARK  156  A    between atoms: _385  and  _386
REMARK  157  A    between atoms: _385  and  _388
REMARK  158  A    between atoms: _388  and  _389
REMARK  159  A    between atoms: _392  and  _394
REMARK  160  A    between atoms: _394  and  _395
REMARK  161  A    between atoms: _394  and  _397
REMARK  162  A    between atoms: _397  and  _398
REMARK  163  A    between atoms: _398  and  _399
REMARK  164  A    between atoms: _399  and  _400
REMARK  165  A    between atoms: _409  and  _411
REMARK  166  A    between atoms: _411  and  _412
REMARK  167  A    between atoms: _411  and  _414
REMARK  168  A    between atoms: _414  and  _415
REMARK  169  A    between atoms: _420  and  _422
REMARK  170  A    between atoms: _422  and  _423
REMARK  171  A    between atoms: _422  and  _425
REMARK  172  A    between atoms: _425  and  _426
REMARK  173  A    between atoms: _429  and  _431
REMARK  174  A    between atoms: _431  and  _432
REMARK  175  A    between atoms: _431  and  _434
REMARK  176  A    between atoms: _434  and  _435
REMARK  177  A    between atoms: _440  and  _441
REMARK  178  A    between atoms: _443  and  _445
REMARK  179  A    between atoms: _445  and  _446
REMARK  180  A    between atoms: _445  and  _448
REMARK  181  A    between atoms: _448  and  _449
REMARK  182  A    between atoms: _452  and  _454
REMARK  183  A    between atoms: _454  and  _455
REMARK  184  A    between atoms: _454  and  _457
REMARK  185  A    between atoms: _457  and  _458
REMARK  186  A    between atoms: _458  and  _459
REMARK  187  A    between atoms: _464  and  _466
REMARK  188  A    between atoms: _466  and  _467
REMARK  189  A    between atoms: _466  and  _469
REMARK  190  A    between atoms: _469  and  _470
REMARK  191  A    between atoms: _470  and  _471
REMARK  192  A    between atoms: _471  and  _472
REMARK  193  A    between atoms: _481  and  _483
REMARK  194  A    between atoms: _483  and  _484
REMARK  195  A    between atoms: _483  and  _486
REMARK  196  A    between atoms: _486  and  _487
REMARK  197  A    between atoms: _487  and  _488
REMARK  198  A    between atoms: _490  and  _492
REMARK  199  A    between atoms: _492  and  _493
REMARK  200  A    between atoms: _492  and  _495
REMARK  201  A    between atoms: _495  and  _496
REMARK  202  A    between atoms: _501  and  _502
REMARK  203  A    between atoms: _504  and  _506
REMARK  204  A    between atoms: _506  and  _507
REMARK  205  A    between atoms: _509  and  _511
REMARK  206  A    between atoms: _511  and  _512
REMARK  207  A    between atoms: _511  and  _514
REMARK  208  A    between atoms: _514  and  _515
REMARK  209  A    between atoms: _515  and  _869
REMARK  210  A    between atoms: _516  and  _518
REMARK  211  A    between atoms: _518  and  _519
REMARK  212  A    between atoms: _518  and  _521
REMARK  213  A    between atoms: _521  and  _522
REMARK  214  A    between atoms: _525  and  _527
REMARK  215  A    between atoms: _527  and  _528
REMARK  216  A    between atoms: _527  and  _530
REMARK  217  A    between atoms: _530  and  _531
REMARK  218  A    between atoms: _531  and  _532
REMARK  219  A    between atoms: _537  and  _539
REMARK  220  A    between atoms: _539  and  _540
REMARK  221  A    between atoms: _539  and  _542
REMARK  222  A    between atoms: _542  and  _543
REMARK  223  A    between atoms: _545  and  _547
REMARK  224  A    between atoms: _547  and  _548
REMARK  225  A    between atoms: _551  and  _553
REMARK  226  A    between atoms: _553  and  _554
REMARK  227  A    between atoms: _553  and  _556
REMARK  228  A    between atoms: _556  and  _557
REMARK  229  A    between atoms: _562  and  _563
REMARK  230  A    between atoms: _565  and  _567
REMARK  231  A    between atoms: _567  and  _568
REMARK  232  A    between atoms: _567  and  _570
REMARK  233  A    between atoms: _570  and  _571
REMARK  234  A    between atoms: _576  and  _577
REMARK  235  A    between atoms: _579  and  _581
REMARK  236  A    between atoms: _581  and  _582
REMARK  237  A    between atoms: _581  and  _584
REMARK  238  A    between atoms: _584  and  _585
REMARK  239  A    between atoms: _588  and  _590
REMARK  240  A    between atoms: _590  and  _591
REMARK  241  A    between atoms: _594  and  _596
REMARK  242  A    between atoms: _596  and  _597
REMARK  243  A    between atoms: _596  and  _599
REMARK  244  A    between atoms: _599  and  _600
REMARK  245  A    between atoms: _610  and  _612
REMARK  246  A    between atoms: _612  and  _613
REMARK  247  A    between atoms: _616  and  _618
REMARK  248  A    between atoms: _618  and  _619
REMARK  249  A    between atoms: _622  and  _624
REMARK  250  A    between atoms: _624  and  _625
REMARK  251  A    between atoms: _624  and  _627
REMARK  252  A    between atoms: _627  and  _628
REMARK  253  A    between atoms: _628  and  _629
REMARK  254  A    between atoms: _634  and  _636
REMARK  255  A    between atoms: _636  and  _637
REMARK  256  A    between atoms: _636  and  _639
REMARK  257  A    between atoms: _639  and  _640
REMARK  258  A    between atoms: _643  and  _645
REMARK  259  A    between atoms: _645  and  _646
REMARK  260  A    between atoms: _645  and  _648
REMARK  261  A    between atoms: _648  and  _649
REMARK  262  A    between atoms: _652  and  _654
REMARK  263  A    between atoms: _654  and  _655
REMARK  264  A    between atoms: _654  and  _657
REMARK  265  A    between atoms: _657  and  _658
REMARK  266  A    between atoms: _658  and  _659
REMARK  267  A    between atoms: _664  and  _666
REMARK  268  A    between atoms: _666  and  _667
REMARK  269  A    between atoms: _666  and  _669
REMARK  270  A    between atoms: _669  and  _670
REMARK  271  A    between atoms: _670  and  _671
REMARK  272  A    between atoms: _671  and  _672
REMARK  273  A    between atoms: _681  and  _683
REMARK  274  A    between atoms: _683  and  _684
REMARK  275  A    between atoms: _683  and  _686
REMARK  276  A    between atoms: _686  and  _687
REMARK  277  A    between atoms: _687  and  _688
REMARK  278  A    between atoms: _688  and  _689
REMARK  279  A    between atoms: _689  and  _690
REMARK  280  A    between atoms: _694  and  _696
REMARK  281  A    between atoms: _696  and  _697
REMARK  282  A    between atoms: _696  and  _699
REMARK  283  A    between atoms: _699  and  _700
REMARK  284  A    between atoms: _710  and  _712
REMARK  285  A    between atoms: _712  and  _713
REMARK  286  A    between atoms: _712  and  _715
REMARK  287  A    between atoms: _715  and  _716
REMARK  288  A    between atoms: _716  and  _717
REMARK  289  A    between atoms: _720  and  _722
REMARK  290  A    between atoms: _722  and  _723
REMARK  291  A    between atoms: _726  and  _728
REMARK  292  A    between atoms: _728  and  _729
REMARK  293  A    between atoms: _732  and  _734
REMARK  294  A    between atoms: _734  and  _735
REMARK  295  A    between atoms: _734  and  _737
REMARK  296  A    between atoms: _737  and  _738
REMARK  297  A    between atoms: _738  and  _739
REMARK  298  A    between atoms: _739  and  _740
REMARK  299  A    between atoms: _749  and  _751
REMARK  300  A    between atoms: _751  and  _752
REMARK  301  A    between atoms: _751  and  _754
REMARK  302  A    between atoms: _754  and  _755
REMARK  303  A    between atoms: _755  and  _756
REMARK  304  A    between atoms: _759  and  _761
REMARK  305  A    between atoms: _761  and  _762
REMARK  306  A    between atoms: _765  and  _767
REMARK  307  A    between atoms: _767  and  _768
REMARK  308  A    between atoms: _767  and  _770
REMARK  309  A    between atoms: _770  and  _771
REMARK  310  A    between atoms: _771  and  _772
REMARK  311  A    between atoms: _775  and  _777
REMARK  312  A    between atoms: _777  and  _778
REMARK  313  A    between atoms: _777  and  _780
REMARK  314  A    between atoms: _780  and  _781
REMARK  315  A    between atoms: _781  and  _782
REMARK  316  A    between atoms: _787  and  _789
REMARK  317  A    between atoms: _789  and  _790
REMARK  318  A    between atoms: _789  and  _792
REMARK  319  A    between atoms: _792  and  _793
REMARK  320  A    between atoms: _803  and  _805
REMARK  321  A    between atoms: _805  and  _806
REMARK  322  A    between atoms: _805  and  _808
REMARK  323  A    between atoms: _808  and  _809
REMARK  324  A    between atoms: _809  and  _810
REMARK  325  A    between atoms: _810  and  _811
REMARK  326  A    between atoms: _820  and  _822
REMARK  327  A    between atoms: _822  and  _823
REMARK  328  A    between atoms: _826  and  _828
REMARK  329  A    between atoms: _828  and  _829
REMARK  330  A    between atoms: _828  and  _831
REMARK  331  A    between atoms: _831  and  _832
REMARK  332  A    between atoms: _837  and  _838
REMARK  333  A    between atoms: _840  and  _842
REMARK  334  A    between atoms: _842  and  _843
REMARK  335  A    between atoms: _842  and  _845
REMARK  336  A    between atoms: _845  and  _846
REMARK  337  A    between atoms: _849  and  _851
REMARK  338  A    between atoms: _851  and  _852
REMARK  339  A    between atoms: _854  and  _856
REMARK  340  A    between atoms: _856  and  _857
REMARK  341  A    between atoms: _856  and  _859
REMARK  342  A    between atoms: _859  and  _860
REMARK  343  A    between atoms: _863  and  _865
REMARK  344  A    between atoms: _865  and  _866
REMARK  345  A    between atoms: _865  and  _868
REMARK  346  A    between atoms: _868  and  _869
REMARK  347  A    between atoms: _870  and  _872
REMARK  348  A    between atoms: _872  and  _873
REMARK  349  A    between atoms: _872  and  _875
REMARK  350  A    between atoms: _878  and  _880
REMARK  351  A    between atoms: _880  and  _881
REMARK  352  A    between atoms: _880  and  _883
REMARK  353  A    between atoms: _883  and  _884
REMARK  354  A    between atoms: _884  and  _885
REMARK  355  A    between atoms: _888  and  _890
REMARK  356  A    between atoms: _890  and  _891
REMARK  357  A    between atoms: _890  and  _893
REMARK  358  A    between atoms: _893  and  _894
REMARK  359  A    between atoms: _904  and  _906
REMARK  360  A    between atoms: _906  and  _907
REMARK  361  A    between atoms: _906  and  _909
REMARK  362  A    between atoms: _909  and  _910
REMARK  363  A    between atoms: _913  and  _915
REMARK  364  A    between atoms: _915  and  _916
REMARK  365  A    between atoms: _915  and  _918
REMARK  366  A    between atoms: _918  and  _919
REMARK  367  A    between atoms: _919  and  _920
REMARK  368  A    between atoms: _920  and  _921
REMARK  369  A    between atoms: _930  and  _932
REMARK  370  A    between atoms: _932  and  _933
REMARK  371  A    between atoms: _932  and  _935
REMARK  372  A    between atoms: _935  and  _936
REMARK  373  A    between atoms: _941  and  _942
REMARK  374  A    between atoms: _944  and  _946
REMARK  375  A    between atoms: _946  and  _947
REMARK  376  A    between atoms: _946  and  _949
REMARK  377  A    between atoms: _949  and  _950
REMARK                            x       y       z     vdW  Elec       q    Type
REMARK                         _______ _______ _______ _____ _____    ______ ____
ROOT
ATOM      1  O   HOH     1      10.313  20.314  42.884  0.00  0.00    +0.000 OA
ENDROOT
TORSDOF 0
REMARK  Name = ../refined-set-2016/1xr9/1xr9_pocket.pdb
REMARK  377 active torsions:
REMARK  status: ('A' for Active; 'I' for Inactive)
REMARK    1  A    between atoms: _1  and  _3
REMARK    2  A    between atoms: _3  and  _4
REMARK    3  A    between atoms: _3  and  _6
REMARK    4  A    between atoms: _6  and  _7
REMARK    5  A    between atoms: _7  and  _8
REMARK    6  A    between atoms: _10  and  _12
REMARK    7  A    between atoms: _12  and  _13
REMARK    8  A    between atoms: _12  and  _15
REMARK    9  A    between atoms: _15  and  _16
REMARK   10  A    between atoms: _16  and  _17
REMARK   11  A    between atoms: _17  and  _18
REMARK   12  A    between atoms: _27  and  _29
REMARK   13  A    between atoms: _29  and  _30
REMARK   14  A    between atoms: _29  and  _32
REMARK   15  A    between atoms: _32  and  _33
REMARK   16  A    between atoms: _38  and  _39
REMARK   17  A    between atoms: _41  and  _43
REMARK   18  A    between atoms: _43  and  _44
REMARK   19  A    between atoms: _43  and  _46
REMARK   20  A    between atoms: _46  and  _47
REMARK   21  A    between atoms: _53  and  _55
REMARK   22  A    between atoms: _55  and  _56
REMARK   23  A    between atoms: _55  and  _58
REMARK   24  A    between atoms: _58  and  _59
REMARK   25  A    between atoms: _64  and  _65
REMARK   26  A    between atoms: _67  and  _69
REMARK   27  A    between atoms: _69  and  _70
REMARK   28  A    between atoms: _69  and  _72
REMARK   29  A    between atoms: _72  and  _73
REMARK   30  A    between atoms: _79  and  _81
REMARK   31  A    between atoms: _81  and  _82
REMARK   32  A    between atoms: _85  and  _87
REMARK   33  A    between atoms: _87  and  _88
REMARK   34  A    between atoms: _87  and  _90
REMARK   35  A    between atoms: _93  and  _95
REMARK   36  A    between atoms: _95  and  _96
REMARK   37  A    between atoms: _98  and  _100
REMARK   38  A    between atoms: _100  and  _101
REMARK   39  A    between atoms: _100  and  _103
REMARK   40  A    between atoms: _106  and  _108
REMARK   41  A    between atoms: _108  and  _109
REMARK   42  A    between atoms: _108  and  _111
REMARK   43  A    between atoms: _111  and  _112
REMARK   44  A    between atoms: _118  and  _120
REMARK   45  A    between atoms: _120  and  _121
REMARK   46  A    between atoms: _120  and  _123
REMARK   47  A    between atoms: _126  and  _128
REMARK   48  A    between atoms: _128  and  _129
REMARK   49  A    between atoms: _128  and  _131
REMARK   50  A    between atoms: _131  and  _132
REMARK   51  A    between atoms: _138  and  _140
REMARK   52  A    between atoms: _140  and  _141
REMARK   53  A    between atoms: _140  and  _143
REMARK   54  A    between atoms: _143  and  _144
REMARK   55  A    between atoms: _144  and  _145
REMARK   56  A    between atoms: _147  and  _149
REMARK   57  A    between atoms: _149  and  _150
REMARK   58  A    between atoms: _149  and  _152
REMARK   59  A    between atoms: _152  and  _153
REMARK   60  A    between atoms: _156  and  _158
REMARK   61  A    between atoms: _158  and  _159
REMARK   62  A    between atoms: _158  and  _161
REMARK   63  A    between atoms: _161  and  _162
REMARK   64  A    between atoms: _162  and  _163
REMARK   65  A    between atoms: _166  and  _168
REMARK   66  A    between atoms: _168  and  _169
REMARK   67  A    between atoms: _168  and  _171
REMARK   68  A    between atoms: _171  and  _172
REMARK   69  A    between atoms: _172  and  _173
REMARK   70  A    between atoms: _176  and  _178
REMARK   71  A    between atoms: _178  and  _179
REMARK   72  A    between atoms: _178  and  _181
REMARK   73  A    between atoms: _181  and  _182
REMARK   74  A    between atoms: _187  and  _188
REMARK   75  A    between atoms: _190  and  _192
REMARK   76  A    between atoms: _192  and  _193
REMARK   77  A    between atoms: _192  and  _195
REMARK   78  A    between atoms: _195  and  _196
REMARK   79  A    between atoms: _206  and  _208
REMARK   80  A    between atoms: _208  and  _209
REMARK   81  A    between atoms: _208  and  _211
REMARK   82  A    between atoms: _211  and  _212
REMARK   83  A    between atoms: _215  and  _217
REMARK   84  A    between atoms: _217  and  _218
REMARK   85  A    between atoms: _217  and  _220
REMARK   86  A    between atoms: _220  and  _221
REMARK   87  A    between atoms: _221  and  _222
REMARK   88  A    between atoms: _222  and  _223
REMARK   89  A    between atoms: _232  and  _234
REMARK   90  A    between atoms: _234  and  _235
REMARK   91  A    between atoms: _234  and  _237
REMARK   92  A    between atoms: _237  and  _238
REMARK   93  A    between atoms: _238  and  _239
REMARK   94  A    between atoms: _242  and  _244
REMARK   95  A    between atoms: _244  and  _245
REMARK   96  A    between atoms: _244  and  _247
REMARK   97  A    between atoms: _247  and  _248
REMARK   98  A    between atoms: _251  and  _253
REMARK   99  A    between atoms: _253  and  _254
REMARK  100  A    between atoms: _253  and  _256
REMARK  101  A    between atoms: _256  and  _257
REMARK  102  A    between atoms: _257  and  _258
REMARK  103  A    between atoms: _263  and  _265
REMARK  104  A    between atoms: _265  and  _266
REMARK  105  A    between atoms: _265  and  _268
REMARK  106  A    between atoms: _268  and  _269
REMARK  107  A    between atoms: _272  and  _274
REMARK  108  A    between atoms: _274  and  _275
REMARK  109  A    between atoms: _274  and  _277
REMARK  110  A    between atoms: _277  and  _278
REMARK  111  A    between atoms: _280  and  _282
REMARK  112  A    between atoms: _282  and  _283
REMARK  113  A    between atoms: _282  and  _285
REMARK  114  A    between atoms: _285  and  _286
REMARK  115  A    between atoms: _286  and  _287
REMARK  116  A    between atoms: _287  and  _288
REMARK  117  A    between atoms: _288  and  _289
REMARK  118  A    between atoms: _293  and  _295
REMARK  119  A    between atoms: _295  and  _296
REMARK  120  A    between atoms: _295  and  _298
REMARK  121  A    between atoms: _298  and  _299
REMARK  122  A    between atoms: _302  and  _304
REMARK  123  A    between atoms: _304  and  _305
REMARK  124  A    between atoms: _304  and  _307
REMARK  125  A    between atoms: _307  and  _308
REMARK  126  A    between atoms: _313  and  _315
REMARK  127  A    between atoms: _315  and  _316
REMARK  128  A    between atoms: _315  and  _318
REMARK  129  A    between atoms: _318  and  _319
REMARK  130  A    between atoms: _319  and  _320
REMARK  131  A    between atoms: _325  and  _327
REMARK  132  A    between atoms: _327  and  _328
REMARK  133  A    between atoms: _327  and  _330
REMARK  134  A    between atoms: _330  and  _331
REMARK  135  A    between atoms: _334  and  _336
REMARK  136  A    between atoms: _336  and  _337
REMARK  137  A    between atoms: _336  and  _339
REMARK  138  A    between atoms: _339  and  _340
REMARK  139  A    between atoms: _345  and  _346
REMARK  140  A    between atoms: _348  and  _350
REMARK  141  A    between atoms: _350  and  _351
REMARK  142  A    between atoms: _350  and  _353
REMARK  143  A    between atoms: _353  and  _354
REMARK  144  A    between atoms: _354  and  _355
REMARK  145  A    between atoms: _355  and  _356
REMARK  146  A    between atoms: _365  and  _367
REMARK  147  A    between atoms: _367  and  _368
REMARK  148  A    between atoms: _367  and  _370
REMARK  149  A    between atoms: _370  and  _371
REMARK  150  A    between atoms: _371  and  _372
REMARK  151  A    between atoms: _375  and  _377
REMARK  152  A    between atoms: _377  and  _378
REMARK  153  A    between atoms: _377  and  _380
REMARK  154  A    between atoms: _380  and  _381
REMARK  155  A    between atoms: _383  and  _385
REMARK  156  A    between atoms: _385  and  _386
REMARK  157  A    between atoms: _385  and  _388
REMARK  158  A    between atoms: _388  and  _389
REMARK  159  A    between atoms: _392  and  _394
REMARK  160  A    between atoms: _394  and  _395
REMARK  161  A    between atoms: _394  and  _397
REMARK  162  A    between atoms: _397  and  _398
REMARK  163  A    between atoms: _398  and  _399
REMARK  164  A    between atoms: _399  and  _400
REMARK  165  A    between atoms: _409  and  _411
REMARK  166  A    between atoms: _411  and  _412
REMARK  167  A    between atoms: _411  and  _414
REMARK  168  A    between atoms: _414  and  _415
REMARK  169  A    between atoms: _420  and  _422
REMARK  170  A    between atoms: _422  and  _423
REMARK  171  A    between atoms: _422  and  _425
REMARK  172  A    between atoms: _425  and  _426
REMARK  173  A    between atoms: _429  and  _431
REMARK  174  A    between atoms: _431  and  _432
REMARK  175  A    between atoms: _431  and  _434
REMARK  176  A    between atoms: _434  and  _435
REMARK  177  A    between atoms: _440  and  _441
REMARK  178  A    between atoms: _443  and  _445
REMARK  179  A    between atoms: _445  and  _446
REMARK  180  A    between atoms: _445  and  _448
REMARK  181  A    between atoms: _448  and  _449
REMARK  182  A    between atoms: _452  and  _454
REMARK  183  A    between atoms: _454  and  _455
REMARK  184  A    between atoms: _454  and  _457
REMARK  185  A    between atoms: _457  and  _458
REMARK  186  A    between atoms: _458  and  _459
REMARK  187  A    between atoms: _464  and  _466
REMARK  188  A    between atoms: _466  and  _467
REMARK  189  A    between atoms: _466  and  _469
REMARK  190  A    between atoms: _469  and  _470
REMARK  191  A    between atoms: _470  and  _471
REMARK  192  A    between atoms: _471  and  _472
REMARK  193  A    between atoms: _481  and  _483
REMARK  194  A    between atoms: _483  and  _484
REMARK  195  A    between atoms: _483  and  _486
REMARK  196  A    between atoms: _486  and  _487
REMARK  197  A    between atoms: _487  and  _488
REMARK  198  A    between atoms: _490  and  _492
REMARK  199  A    between atoms: _492  and  _493
REMARK  200  A    between atoms: _492  and  _495
REMARK  201  A    between atoms: _495  and  _496
REMARK  202  A    between atoms: _501  and  _502
REMARK  203  A    between atoms: _504  and  _506
REMARK  204  A    between atoms: _506  and  _507
REMARK  205  A    between atoms: _509  and  _511
REMARK  206  A    between atoms: _511  and  _512
REMARK  207  A    between atoms: _511  and  _514
REMARK  208  A    between atoms: _514  and  _515
REMARK  209  A    between atoms: _515  and  _869
REMARK  210  A    between atoms: _516  and  _518
REMARK  211  A    between atoms: _518  and  _519
REMARK  212  A    between atoms: _518  and  _521
REMARK  213  A    between atoms: _521  and  _522
REMARK  214  A    between atoms: _525  and  _527
REMARK  215  A    between atoms: _527  and  _528
REMARK  216  A    between atoms: _527  and  _530
REMARK  217  A    between atoms: _530  and  _531
REMARK  218  A    between atoms: _531  and  _532
REMARK  219  A    between atoms: _537  and  _539
REMARK  220  A    between atoms: _539  and  _540
REMARK  221  A    between atoms: _539  and  _542
REMARK  222  A    between atoms: _542  and  _543
REMARK  223  A    between atoms: _545  and  _547
REMARK  224  A    between atoms: _547  and  _548
REMARK  225  A    between atoms: _551  and  _553
REMARK  226  A    between atoms: _553  and  _554
REMARK  227  A    between atoms: _553  and  _556
REMARK  228  A    between atoms: _556  and  _557
REMARK  229  A    between atoms: _562  and  _563
REMARK  230  A    between atoms: _565  and  _567
REMARK  231  A    between atoms: _567  and  _568
REMARK  232  A    between atoms: _567  and  _570
REMARK  233  A    between atoms: _570  and  _571
REMARK  234  A    between atoms: _576  and  _577
REMARK  235  A    between atoms: _579  and  _581
REMARK  236  A    between atoms: _581  and  _582
REMARK  237  A    between atoms: _581  and  _584
REMARK  238  A    between atoms: _584  and  _585
REMARK  239  A    between atoms: _588  and  _590
REMARK  240  A    between atoms: _590  and  _591
REMARK  241  A    between atoms: _594  and  _596
REMARK  242  A    between atoms: _596  and  _597
REMARK  243  A    between atoms: _596  and  _599
REMARK  244  A    between atoms: _599  and  _600
REMARK  245  A    between atoms: _610  and  _612
REMARK  246  A    between atoms: _612  and  _613
REMARK  247  A    between atoms: _616  and  _618
REMARK  248  A    between atoms: _618  and  _619
REMARK  249  A    between atoms: _622  and  _624
REMARK  250  A    between atoms: _624  and  _625
REMARK  251  A    between atoms: _624  and  _627
REMARK  252  A    between atoms: _627  and  _628
REMARK  253  A    between atoms: _628  and  _629
REMARK  254  A    between atoms: _634  and  _636
REMARK  255  A    between atoms: _636  and  _637
REMARK  256  A    between atoms: _636  and  _639
REMARK  257  A    between atoms: _639  and  _640
REMARK  258  A    between atoms: _643  and  _645
REMARK  259  A    between atoms: _645  and  _646
REMARK  260  A    between atoms: _645  and  _648
REMARK  261  A    between atoms: _648  and  _649
REMARK  262  A    between atoms: _652  and  _654
REMARK  263  A    between atoms: _654  and  _655
REMARK  264  A    between atoms: _654  and  _657
REMARK  265  A    between atoms: _657  and  _658
REMARK  266  A    between atoms: _658  and  _659
REMARK  267  A    between atoms: _664  and  _666
REMARK  268  A    between atoms: _666  and  _667
REMARK  269  A    between atoms: _666  and  _669
REMARK  270  A    between atoms: _669  and  _670
REMARK  271  A    between atoms: _670  and  _671
REMARK  272  A    between atoms: _671  and  _672
REMARK  273  A    between atoms: _681  and  _683
REMARK  274  A    between atoms: _683  and  _684
REMARK  275  A    between atoms: _683  and  _686
REMARK  276  A    between atoms: _686  and  _687
REMARK  277  A    between atoms: _687  and  _688
REMARK  278  A    between atoms: _688  and  _689
REMARK  279  A    between atoms: _689  and  _690
REMARK  280  A    between atoms: _694  and  _696
REMARK  281  A    between atoms: _696  and  _697
REMARK  282  A    between atoms: _696  and  _699
REMARK  283  A    between atoms: _699  and  _700
REMARK  284  A    between atoms: _710  and  _712
REMARK  285  A    between atoms: _712  and  _713
REMARK  286  A    between atoms: _712  and  _715
REMARK  287  A    between atoms: _715  and  _716
REMARK  288  A    between atoms: _716  and  _717
REMARK  289  A    between atoms: _720  and  _722
REMARK  290  A    between atoms: _722  and  _723
REMARK  291  A    between atoms: _726  and  _728
REMARK  292  A    between atoms: _728  and  _729
REMARK  293  A    between atoms: _732  and  _734
REMARK  294  A    between atoms: _734  and  _735
REMARK  295  A    between atoms: _734  and  _737
REMARK  296  A    between atoms: _737  and  _738
REMARK  297  A    between atoms: _738  and  _739
REMARK  298  A    between atoms: _739  and  _740
REMARK  299  A    between atoms: _749  and  _751
REMARK  300  A    between atoms: _751  and  _752
REMARK  301  A    between atoms: _751  and  _754
REMARK  302  A    between atoms: _754  and  _755
REMARK  303  A    between atoms: _755  and  _756
REMARK  304  A    between atoms: _759  and  _761
REMARK  305  A    between atoms: _761  and  _762
REMARK  306  A    between atoms: _765  and  _767
REMARK  307  A    between atoms: _767  and  _768
REMARK  308  A    between atoms: _767  and  _770
REMARK  309  A    between atoms: _770  and  _771
REMARK  310  A    between atoms: _771  and  _772
REMARK  311  A    between atoms: _775  and  _777
REMARK  312  A    between atoms: _777  and  _778
REMARK  313  A    between atoms: _777  and  _780
REMARK  314  A    between atoms: _780  and  _781
REMARK  315  A    between atoms: _781  and  _782
REMARK  316  A    between atoms: _787  and  _789
REMARK  317  A    between atoms: _789  and  _790
REMARK  318  A    between atoms: _789  and  _792
REMARK  319  A    between atoms: _792  and  _793
REMARK  320  A    between atoms: _803  and  _805
REMARK  321  A    between atoms: _805  and  _806
REMARK  322  A    between atoms: _805  and  _808
REMARK  323  A    between atoms: _808  and  _809
REMARK  324  A    between atoms: _809  and  _810
REMARK  325  A    between atoms: _810  and  _811
REMARK  326  A    between atoms: _820  and  _822
REMARK  327  A    between atoms: _822  and  _823
REMARK  328  A    between atoms: _826  and  _828
REMARK  329  A    between atoms: _828  and  _829
REMARK  330  A    between atoms: _828  and  _831
REMARK  331  A    between atoms: _831  and  _832
REMARK  332  A    between atoms: _837  and  _838
REMARK  333  A    between atoms: _840  and  _842
REMARK  334  A    between atoms: _842  and  _843
REMARK  335  A    between atoms: _842  and  _845
REMARK  336  A    between atoms: _845  and  _846
REMARK  337  A    between atoms: _849  and  _851
REMARK  338  A    between atoms: _851  and  _852
REMARK  339  A    between atoms: _854  and  _856
REMARK  340  A    between atoms: _856  and  _857
REMARK  341  A    between atoms: _856  and  _859
REMARK  342  A    between atoms: _859  and  _860
REMARK  343  A    between atoms: _863  and  _865
REMARK  344  A    between atoms: _865  and  _866
REMARK  345  A    between atoms: _865  and  _868
REMARK  346  A    between atoms: _868  and  _869
REMARK  347  A    between atoms: _870  and  _872
REMARK  348  A    between atoms: _872  and  _873
REMARK  349  A    between atoms: _872  and  _875
REMARK  350  A    between atoms: _878  and  _880
REMARK  351  A    between atoms: _880  and  _881
REMARK  352  A    between atoms: _880  and  _883
REMARK  353  A    between atoms: _883  and  _884
REMARK  354  A    between atoms: _884  and  _885
REMARK  355  A    between atoms: _888  and  _890
REMARK  356  A    between atoms: _890  and  _891
REMARK  357  A    between atoms: _890  and  _893
REMARK  358  A    between atoms: _893  and  _894
REMARK  359  A    between atoms: _904  and  _906
REMARK  360  A    between atoms: _906  and  _907
REMARK  361  A    between atoms: _906  and  _909
REMARK  362  A    between atoms: _909  and  _910
REMARK  363  A    between atoms: _913  and  _915
REMARK  364  A    between atoms: _915  and  _916
REMARK  365  A    between atoms: _915  and  _918
REMARK  366  A    between atoms: _918  and  _919
REMARK  367  A    between atoms: _919  and  _920
REMARK  368  A    between atoms: _920  and  _921
REMARK  369  A    between atoms: _930  and  _932
REMARK  370  A    between atoms: _932  and  _933
REMARK  371  A    between atoms: _932  and  _935
REMARK  372  A    between atoms: _935  and  _936
REMARK  373  A    between atoms: _941  and  _942
REMARK  374  A    between atoms: _944  and  _946
REMARK  375  A    between atoms: _946  and  _947
REMARK  376  A    between atoms: _946  and  _949
REMARK  377  A    between atoms: _949  and  _950
REMARK                            x       y       z     vdW  Elec       q    Type
REMARK                         _______ _______ _______ _____ _____    ______ ____
ROOT
ATOM      1  O   HOH     1      22.835  18.962  42.391  0.00  0.00    +0.000 OA
ENDROOT
TORSDOF 0
REMARK  Name = ../refined-set-2016/1xr9/1xr9_pocket.pdb
REMARK  377 active torsions:
REMARK  status: ('A' for Active; 'I' for Inactive)
REMARK    1  A    between atoms: _1  and  _3
REMARK    2  A    between atoms: _3  and  _4
REMARK    3  A    between atoms: _3  and  _6
REMARK    4  A    between atoms: _6  and  _7
REMARK    5  A    between atoms: _7  and  _8
REMARK    6  A    between atoms: _10  and  _12
REMARK    7  A    between atoms: _12  and  _13
REMARK    8  A    between atoms: _12  and  _15
REMARK    9  A    between atoms: _15  and  _16
REMARK   10  A    between atoms: _16  and  _17
REMARK   11  A    between atoms: _17  and  _18
REMARK   12  A    between atoms: _27  and  _29
REMARK   13  A    between atoms: _29  and  _30
REMARK   14  A    between atoms: _29  and  _32
REMARK   15  A    between atoms: _32  and  _33
REMARK   16  A    between atoms: _38  and  _39
REMARK   17  A    between atoms: _41  and  _43
REMARK   18  A    between atoms: _43  and  _44
REMARK   19  A    between atoms: _43  and  _46
REMARK   20  A    between atoms: _46  and  _47
REMARK   21  A    between atoms: _53  and  _55
REMARK   22  A    between atoms: _55  and  _56
REMARK   23  A    between atoms: _55  and  _58
REMARK   24  A    between atoms: _58  and  _59
REMARK   25  A    between atoms: _64  and  _65
REMARK   26  A    between atoms: _67  and  _69
REMARK   27  A    between atoms: _69  and  _70
REMARK   28  A    between atoms: _69  and  _72
REMARK   29  A    between atoms: _72  and  _73
REMARK   30  A    between atoms: _79  and  _81
REMARK   31  A    between atoms: _81  and  _82
REMARK   32  A    between atoms: _85  and  _87
REMARK   33  A    between atoms: _87  and  _88
REMARK   34  A    between atoms: _87  and  _90
REMARK   35  A    between atoms: _93  and  _95
REMARK   36  A    between atoms: _95  and  _96
REMARK   37  A    between atoms: _98  and  _100
REMARK   38  A    between atoms: _100  and  _101
REMARK   39  A    between atoms: _100  and  _103
REMARK   40  A    between atoms: _106  and  _108
REMARK   41  A    between atoms: _108  and  _109
REMARK   42  A    between atoms: _108  and  _111
REMARK   43  A    between atoms: _111  and  _112
REMARK   44  A    between atoms: _118  and  _120
REMARK   45  A    between atoms: _120  and  _121
REMARK   46  A    between atoms: _120  and  _123
REMARK   47  A    between atoms: _126  and  _128
REMARK   48  A    between atoms: _128  and  _129
REMARK   49  A    between atoms: _128  and  _131
REMARK   50  A    between atoms: _131  and  _132
REMARK   51  A    between atoms: _138  and  _140
REMARK   52  A    between atoms: _140  and  _141
REMARK   53  A    between atoms: _140  and  _143
REMARK   54  A    between atoms: _143  and  _144
REMARK   55  A    between atoms: _144  and  _145
REMARK   56  A    between atoms: _147  and  _149
REMARK   57  A    between atoms: _149  and  _150
REMARK   58  A    between atoms: _149  and  _152
REMARK   59  A    between atoms: _152  and  _153
REMARK   60  A    between atoms: _156  and  _158
REMARK   61  A    between atoms: _158  and  _159
REMARK   62  A    between atoms: _158  and  _161
REMARK   63  A    between atoms: _161  and  _162
REMARK   64  A    between atoms: _162  and  _163
REMARK   65  A    between atoms: _166  and  _168
REMARK   66  A    between atoms: _168  and  _169
REMARK   67  A    between atoms: _168  and  _171
REMARK   68  A    between atoms: _171  and  _172
REMARK   69  A    between atoms: _172  and  _173
REMARK   70  A    between atoms: _176  and  _178
REMARK   71  A    between atoms: _178  and  _179
REMARK   72  A    between atoms: _178  and  _181
REMARK   73  A    between atoms: _181  and  _182
REMARK   74  A    between atoms: _187  and  _188
REMARK   75  A    between atoms: _190  and  _192
REMARK   76  A    between atoms: _192  and  _193
REMARK   77  A    between atoms: _192  and  _195
REMARK   78  A    between atoms: _195  and  _196
REMARK   79  A    between atoms: _206  and  _208
REMARK   80  A    between atoms: _208  and  _209
REMARK   81  A    between atoms: _208  and  _211
REMARK   82  A    between atoms: _211  and  _212
REMARK   83  A    between atoms: _215  and  _217
REMARK   84  A    between atoms: _217  and  _218
REMARK   85  A    between atoms: _217  and  _220
REMARK   86  A    between atoms: _220  and  _221
REMARK   87  A    between atoms: _221  and  _222
REMARK   88  A    between atoms: _222  and  _223
REMARK   89  A    between atoms: _232  and  _234
REMARK   90  A    between atoms: _234  and  _235
REMARK   91  A    between atoms: _234  and  _237
REMARK   92  A    between atoms: _237  and  _238
REMARK   93  A    between atoms: _238  and  _239
REMARK   94  A    between atoms: _242  and  _244
REMARK   95  A    between atoms: _244  and  _245
REMARK   96  A    between atoms: _244  and  _247
REMARK   97  A    between atoms: _247  and  _248
REMARK   98  A    between atoms: _251  and  _253
REMARK   99  A    between atoms: _253  and  _254
REMARK  100  A    between atoms: _253  and  _256
REMARK  101  A    between atoms: _256  and  _257
REMARK  102  A    between atoms: _257  and  _258
REMARK  103  A    between atoms: _263  and  _265
REMARK  104  A    between atoms: _265  and  _266
REMARK  105  A    between atoms: _265  and  _268
REMARK  106  A    between atoms: _268  and  _269
REMARK  107  A    between atoms: _272  and  _274
REMARK  108  A    between atoms: _274  and  _275
REMARK  109  A    between atoms: _274  and  _277
REMARK  110  A    between atoms: _277  and  _278
REMARK  111  A    between atoms: _280  and  _282
REMARK  112  A    between atoms: _282  and  _283
REMARK  113  A    between atoms: _282  and  _285
REMARK  114  A    between atoms: _285  and  _286
REMARK  115  A    between atoms: _286  and  _287
REMARK  116  A    between atoms: _287  and  _288
REMARK  117  A    between atoms: _288  and  _289
REMARK  118  A    between atoms: _293  and  _295
REMARK  119  A    between atoms: _295  and  _296
REMARK  120  A    between atoms: _295  and  _298
REMARK  121  A    between atoms: _298  and  _299
REMARK  122  A    between atoms: _302  and  _304
REMARK  123  A    between atoms: _304  and  _305
REMARK  124  A    between atoms: _304  and  _307
REMARK  125  A    between atoms: _307  and  _308
REMARK  126  A    between atoms: _313  and  _315
REMARK  127  A    between atoms: _315  and  _316
REMARK  128  A    between atoms: _315  and  _318
REMARK  129  A    between atoms: _318  and  _319
REMARK  130  A    between atoms: _319  and  _320
REMARK  131  A    between atoms: _325  and  _327
REMARK  132  A    between atoms: _327  and  _328
REMARK  133  A    between atoms: _327  and  _330
REMARK  134  A    between atoms: _330  and  _331
REMARK  135  A    between atoms: _334  and  _336
REMARK  136  A    between atoms: _336  and  _337
REMARK  137  A    between atoms: _336  and  _339
REMARK  138  A    between atoms: _339  and  _340
REMARK  139  A    between atoms: _345  and  _346
REMARK  140  A    between atoms: _348  and  _350
REMARK  141  A    between atoms: _350  and  _351
REMARK  142  A    between atoms: _350  and  _353
REMARK  143  A    between atoms: _353  and  _354
REMARK  144  A    between atoms: _354  and  _355
REMARK  145  A    between atoms: _355  and  _356
REMARK  146  A    between atoms: _365  and  _367
REMARK  147  A    between atoms: _367  and  _368
REMARK  148  A    between atoms: _367  and  _370
REMARK  149  A    between atoms: _370  and  _371
REMARK  150  A    between atoms: _371  and  _372
REMARK  151  A    between atoms: _375  and  _377
REMARK  152  A    between atoms: _377  and  _378
REMARK  153  A    between atoms: _377  and  _380
REMARK  154  A    between atoms: _380  and  _381
REMARK  155  A    between atoms: _383  and  _385
REMARK  156  A    between atoms: _385  and  _386
REMARK  157  A    between atoms: _385  and  _388
REMARK  158  A    between atoms: _388  and  _389
REMARK  159  A    between atoms: _392  and  _394
REMARK  160  A    between atoms: _394  and  _395
REMARK  161  A    between atoms: _394  and  _397
REMARK  162  A    between atoms: _397  and  _398
REMARK  163  A    between atoms: _398  and  _399
REMARK  164  A    between atoms: _399  and  _400
REMARK  165  A    between atoms: _409  and  _411
REMARK  166  A    between atoms: _411  and  _412
REMARK  167  A    between atoms: _411  and  _414
REMARK  168  A    between atoms: _414  and  _415
REMARK  169  A    between atoms: _420  and  _422
REMARK  170  A    between atoms: _422  and  _423
REMARK  171  A    between atoms: _422  and  _425
REMARK  172  A    between atoms: _425  and  _426
REMARK  173  A    between atoms: _429  and  _431
REMARK  174  A    between atoms: _431  and  _432
REMARK  175  A    between atoms: _431  and  _434
REMARK  176  A    between atoms: _434  and  _435
REMARK  177  A    between atoms: _440  and  _441
REMARK  178  A    between atoms: _443  and  _445
REMARK  179  A    between atoms: _445  and  _446
REMARK  180  A    between atoms: _445  and  _448
REMARK  181  A    between atoms: _448  and  _449
REMARK  182  A    between atoms: _452  and  _454
REMARK  183  A    between atoms: _454  and  _455
REMARK  184  A    between atoms: _454  and  _457
REMARK  185  A    between atoms: _457  and  _458
REMARK  186  A    between atoms: _458  and  _459
REMARK  187  A    between atoms: _464  and  _466
REMARK  188  A    between atoms: _466  and  _467
REMARK  189  A    between atoms: _466  and  _469
REMARK  190  A    between atoms: _469  and  _470
REMARK  191  A    between atoms: _470  and  _471
REMARK  192  A    between atoms: _471  and  _472
REMARK  193  A    between atoms: _481  and  _483
REMARK  194  A    between atoms: _483  and  _484
REMARK  195  A    between atoms: _483  and  _486
REMARK  196  A    between atoms: _486  and  _487
REMARK  197  A    between atoms: _487  and  _488
REMARK  198  A    between atoms: _490  and  _492
REMARK  199  A    between atoms: _492  and  _493
REMARK  200  A    between atoms: _492  and  _495
REMARK  201  A    between atoms: _495  and  _496
REMARK  202  A    between atoms: _501  and  _502
REMARK  203  A    between atoms: _504  and  _506
REMARK  204  A    between atoms: _506  and  _507
REMARK  205  A    between atoms: _509  and  _511
REMARK  206  A    between atoms: _511  and  _512
REMARK  207  A    between atoms: _511  and  _514
REMARK  208  A    between atoms: _514  and  _515
REMARK  209  A    between atoms: _515  and  _869
REMARK  210  A    between atoms: _516  and  _518
REMARK  211  A    between atoms: _518  and  _519
REMARK  212  A    between atoms: _518  and  _521
REMARK  213  A    between atoms: _521  and  _522
REMARK  214  A    between atoms: _525  and  _527
REMARK  215  A    between atoms: _527  and  _528
REMARK  216  A    between atoms: _527  and  _530
REMARK  217  A    between atoms: _530  and  _531
REMARK  218  A    between atoms: _531  and  _532
REMARK  219  A    between atoms: _537  and  _539
REMARK  220  A    between atoms: _539  and  _540
REMARK  221  A    between atoms: _539  and  _542
REMARK  222  A    between atoms: _542  and  _543
REMARK  223  A    between atoms: _545  and  _547
REMARK  224  A    between atoms: _547  and  _548
REMARK  225  A    between atoms: _551  and  _553
REMARK  226  A    between atoms: _553  and  _554
REMARK  227  A    between atoms: _553  and  _556
REMARK  228  A    between atoms: _556  and  _557
REMARK  229  A    between atoms: _562  and  _563
REMARK  230  A    between atoms: _565  and  _567
REMARK  231  A    between atoms: _567  and  _568
REMARK  232  A    between atoms: _567  and  _570
REMARK  233  A    between atoms: _570  and  _571
REMARK  234  A    between atoms: _576  and  _577
REMARK  235  A    between atoms: _579  and  _581
REMARK  236  A    between atoms: _581  and  _582
REMARK  237  A    between atoms: _581  and  _584
REMARK  238  A    between atoms: _584  and  _585
REMARK  239  A    between atoms: _588  and  _590
REMARK  240  A    between atoms: _590  and  _591
REMARK  241  A    between atoms: _594  and  _596
REMARK  242  A    between atoms: _596  and  _597
REMARK  243  A    between atoms: _596  and  _599
REMARK  244  A    between atoms: _599  and  _600
REMARK  245  A    between atoms: _610  and  _612
REMARK  246  A    between atoms: _612  and  _613
REMARK  247  A    between atoms: _616  and  _618
REMARK  248  A    between atoms: _618  and  _619
REMARK  249  A    between atoms: _622  and  _624
REMARK  250  A    between atoms: _624  and  _625
REMARK  251  A    between atoms: _624  and  _627
REMARK  252  A    between atoms: _627  and  _628
REMARK  253  A    between atoms: _628  and  _629
REMARK  254  A    between atoms: _634  and  _636
REMARK  255  A    between atoms: _636  and  _637
REMARK  256  A    between atoms: _636  and  _639
REMARK  257  A    between atoms: _639  and  _640
REMARK  258  A    between atoms: _643  and  _645
REMARK  259  A    between atoms: _645  and  _646
REMARK  260  A    between atoms: _645  and  _648
REMARK  261  A    between atoms: _648  and  _649
REMARK  262  A    between atoms: _652  and  _654
REMARK  263  A    between atoms: _654  and  _655
REMARK  264  A    between atoms: _654  and  _657
REMARK  265  A    between atoms: _657  and  _658
REMARK  266  A    between atoms: _658  and  _659
REMARK  267  A    between atoms: _664  and  _666
REMARK  268  A    between atoms: _666  and  _667
REMARK  269  A    between atoms: _666  and  _669
REMARK  270  A    between atoms: _669  and  _670
REMARK  271  A    between atoms: _670  and  _671
REMARK  272  A    between atoms: _671  and  _672
REMARK  273  A    between atoms: _681  and  _683
REMARK  274  A    between atoms: _683  and  _684
REMARK  275  A    between atoms: _683  and  _686
REMARK  276  A    between atoms: _686  and  _687
REMARK  277  A    between atoms: _687  and  _688
REMARK  278  A    between atoms: _688  and  _689
REMARK  279  A    between atoms: _689  and  _690
REMARK  280  A    between atoms: _694  and  _696
REMARK  281  A    between atoms: _696  and  _697
REMARK  282  A    between atoms: _696  and  _699
REMARK  283  A    between atoms: _699  and  _700
REMARK  284  A    between atoms: _710  and  _712
REMARK  285  A    between atoms: _712  and  _713
REMARK  286  A    between atoms: _712  and  _715
REMARK  287  A    between atoms: _715  and  _716
REMARK  288  A    between atoms: _716  and  _717
REMARK  289  A    between atoms: _720  and  _722
REMARK  290  A    between atoms: _722  and  _723
REMARK  291  A    between atoms: _726  and  _728
REMARK  292  A    between atoms: _728  and  _729
REMARK  293  A    between atoms: _732  and  _734
REMARK  294  A    between atoms: _734  and  _735
REMARK  295  A    between atoms: _734  and  _737
REMARK  296  A    between atoms: _737  and  _738
REMARK  297  A    between atoms: _738  and  _739
REMARK  298  A    between atoms: _739  and  _740
REMARK  299  A    between atoms: _749  and  _751
REMARK  300  A    between atoms: _751  and  _752
REMARK  301  A    between atoms: _751  and  _754
REMARK  302  A    between atoms: _754  and  _755
REMARK  303  A    between atoms: _755  and  _756
REMARK  304  A    between atoms: _759  and  _761
REMARK  305  A    between atoms: _761  and  _762
REMARK  306  A    between atoms: _765  and  _767
REMARK  307  A    between atoms: _767  and  _768
REMARK  308  A    between atoms: _767  and  _770
REMARK  309  A    between atoms: _770  and  _771
REMARK  310  A    between atoms: _771  and  _772
REMARK  311  A    between atoms: _775  and  _777
REMARK  312  A    between atoms: _777  and  _778
REMARK  313  A    between atoms: _777  and  _780
REMARK  314  A    between atoms: _780  and  _781
REMARK  315  A    between atoms: _781  and  _782
REMARK  316  A    between atoms: _787  and  _789
REMARK  317  A    between atoms: _789  and  _790
REMARK  318  A    between atoms: _789  and  _792
REMARK  319  A    between atoms: _792  and  _793
REMARK  320  A    between atoms: _803  and  _805
REMARK  321  A    between atoms: _805  and  _806
REMARK  322  A    between atoms: _805  and  _808
REMARK  323  A    between atoms: _808  and  _809
REMARK  324  A    between atoms: _809  and  _810
REMARK  325  A    between atoms: _810  and  _811
REMARK  326  A    between atoms: _820  and  _822
REMARK  327  A    between atoms: _822  and  _823
REMARK  328  A    between atoms: _826  and  _828
REMARK  329  A    between atoms: _828  and  _829
REMARK  330  A    between atoms: _828  and  _831
REMARK  331  A    between atoms: _831  and  _832
REMARK  332  A    between atoms: _837  and  _838
REMARK  333  A    between atoms: _840  and  _842
REMARK  334  A    between atoms: _842  and  _843
REMARK  335  A    between atoms: _842  and  _845
REMARK  336  A    between atoms: _845  and  _846
REMARK  337  A    between atoms: _849  and  _851
REMARK  338  A    between atoms: _851  and  _852
REMARK  339  A    between atoms: _854  and  _856
REMARK  340  A    between atoms: _856  and  _857
REMARK  341  A    between atoms: _856  and  _859
REMARK  342  A    between atoms: _859  and  _860
REMARK  343  A    between atoms: _863  and  _865
REMARK  344  A    between atoms: _865  and  _866
REMARK  345  A    between atoms: _865  and  _868
REMARK  346  A    between atoms: _868  and  _869
REMARK  347  A    between atoms: _870  and  _872
REMARK  348  A    between atoms: _872  and  _873
REMARK  349  A    between atoms: _872  and  _875
REMARK  350  A    between atoms: _878  and  _880
REMARK  351  A    between atoms: _880  and  _881
REMARK  352  A    between atoms: _880  and  _883
REMARK  353  A    between atoms: _883  and  _884
REMARK  354  A    between atoms: _884  and  _885
REMARK  355  A    between atoms: _888  and  _890
REMARK  356  A    between atoms: _890  and  _891
REMARK  357  A    between atoms: _890  and  _893
REMARK  358  A    between atoms: _893  and  _894
REMARK  359  A    between atoms: _904  and  _906
REMARK  360  A    between atoms: _906  and  _907
REMARK  361  A    between atoms: _906  and  _909
REMARK  362  A    between atoms: _909  and  _910
REMARK  363  A    between atoms: _913  and  _915
REMARK  364  A    between atoms: _915  and  _916
REMARK  365  A    between atoms: _915  and  _918
REMARK  366  A    between atoms: _918  and  _919
REMARK  367  A    between atoms: _919  and  _920
REMARK  368  A    between atoms: _920  and  _921
REMARK  369  A    between atoms: _930  and  _932
REMARK  370  A    between atoms: _932  and  _933
REMARK  371  A    between atoms: _932  and  _935
REMARK  372  A    between atoms: _935  and  _936
REMARK  373  A    between atoms: _941  and  _942
REMARK  374  A    between atoms: _944  and  _946
REMARK  375  A    between atoms: _946  and  _947
REMARK  376  A    between atoms: _946  and  _949
REMARK  377  A    between atoms: _949  and  _950
REMARK                            x       y       z     vdW  Elec       q    Type
REMARK                         _______ _______ _______ _____ _____    ______ ____
ROOT
ATOM      1  O   HOH     1      21.789  30.044  43.934  0.00  0.00    +0.000 OA
ENDROOT
TORSDOF 0
REMARK  Name = ../refined-set-2016/1xr9/1xr9_pocket.pdb
REMARK  377 active torsions:
REMARK  status: ('A' for Active; 'I' for Inactive)
REMARK    1  A    between atoms: _1  and  _3
REMARK    2  A    between atoms: _3  and  _4
REMARK    3  A    between atoms: _3  and  _6
REMARK    4  A    between atoms: _6  and  _7
REMARK    5  A    between atoms: _7  and  _8
REMARK    6  A    between atoms: _10  and  _12
REMARK    7  A    between atoms: _12  and  _13
REMARK    8  A    between atoms: _12  and  _15
REMARK    9  A    between atoms: _15  and  _16
REMARK   10  A    between atoms: _16  and  _17
REMARK   11  A    between atoms: _17  and  _18
REMARK   12  A    between atoms: _27  and  _29
REMARK   13  A    between atoms: _29  and  _30
REMARK   14  A    between atoms: _29  and  _32
REMARK   15  A    between atoms: _32  and  _33
REMARK   16  A    between atoms: _38  and  _39
REMARK   17  A    between atoms: _41  and  _43
REMARK   18  A    between atoms: _43  and  _44
REMARK   19  A    between atoms: _43  and  _46
REMARK   20  A    between atoms: _46  and  _47
REMARK   21  A    between atoms: _53  and  _55
REMARK   22  A    between atoms: _55  and  _56
REMARK   23  A    between atoms: _55  and  _58
REMARK   24  A    between atoms: _58  and  _59
REMARK   25  A    between atoms: _64  and  _65
REMARK   26  A    between atoms: _67  and  _69
REMARK   27  A    between atoms: _69  and  _70
REMARK   28  A    between atoms: _69  and  _72
REMARK   29  A    between atoms: _72  and  _73
REMARK   30  A    between atoms: _79  and  _81
REMARK   31  A    between atoms: _81  and  _82
REMARK   32  A    between atoms: _85  and  _87
REMARK   33  A    between atoms: _87  and  _88
REMARK   34  A    between atoms: _87  and  _90
REMARK   35  A    between atoms: _93  and  _95
REMARK   36  A    between atoms: _95  and  _96
REMARK   37  A    between atoms: _98  and  _100
REMARK   38  A    between atoms: _100  and  _101
REMARK   39  A    between atoms: _100  and  _103
REMARK   40  A    between atoms: _106  and  _108
REMARK   41  A    between atoms: _108  and  _109
REMARK   42  A    between atoms: _108  and  _111
REMARK   43  A    between atoms: _111  and  _112
REMARK   44  A    between atoms: _118  and  _120
REMARK   45  A    between atoms: _120  and  _121
REMARK   46  A    between atoms: _120  and  _123
REMARK   47  A    between atoms: _126  and  _128
REMARK   48  A    between atoms: _128  and  _129
REMARK   49  A    between atoms: _128  and  _131
REMARK   50  A    between atoms: _131  and  _132
REMARK   51  A    between atoms: _138  and  _140
REMARK   52  A    between atoms: _140  and  _141
REMARK   53  A    between atoms: _140  and  _143
REMARK   54  A    between atoms: _143  and  _144
REMARK   55  A    between atoms: _144  and  _145
REMARK   56  A    between atoms: _147  and  _149
REMARK   57  A    between atoms: _149  and  _150
REMARK   58  A    between atoms: _149  and  _152
REMARK   59  A    between atoms: _152  and  _153
REMARK   60  A    between atoms: _156  and  _158
REMARK   61  A    between atoms: _158  and  _159
REMARK   62  A    between atoms: _158  and  _161
REMARK   63  A    between atoms: _161  and  _162
REMARK   64  A    between atoms: _162  and  _163
REMARK   65  A    between atoms: _166  and  _168
REMARK   66  A    between atoms: _168  and  _169
REMARK   67  A    between atoms: _168  and  _171
REMARK   68  A    between atoms: _171  and  _172
REMARK   69  A    between atoms: _172  and  _173
REMARK   70  A    between atoms: _176  and  _178
REMARK   71  A    between atoms: _178  and  _179
REMARK   72  A    between atoms: _178  and  _181
REMARK   73  A    between atoms: _181  and  _182
REMARK   74  A    between atoms: _187  and  _188
REMARK   75  A    between atoms: _190  and  _192
REMARK   76  A    between atoms: _192  and  _193
REMARK   77  A    between atoms: _192  and  _195
REMARK   78  A    between atoms: _195  and  _196
REMARK   79  A    between atoms: _206  and  _208
REMARK   80  A    between atoms: _208  and  _209
REMARK   81  A    between atoms: _208  and  _211
REMARK   82  A    between atoms: _211  and  _212
REMARK   83  A    between atoms: _215  and  _217
REMARK   84  A    between atoms: _217  and  _218
REMARK   85  A    between atoms: _217  and  _220
REMARK   86  A    between atoms: _220  and  _221
REMARK   87  A    between atoms: _221  and  _222
REMARK   88  A    between atoms: _222  and  _223
REMARK   89  A    between atoms: _232  and  _234
REMARK   90  A    between atoms: _234  and  _235
REMARK   91  A    between atoms: _234  and  _237
REMARK   92  A    between atoms: _237  and  _238
REMARK   93  A    between atoms: _238  and  _239
REMARK   94  A    between atoms: _242  and  _244
REMARK   95  A    between atoms: _244  and  _245
REMARK   96  A    between atoms: _244  and  _247
REMARK   97  A    between atoms: _247  and  _248
REMARK   98  A    between atoms: _251  and  _253
REMARK   99  A    between atoms: _253  and  _254
REMARK  100  A    between atoms: _253  and  _256
REMARK  101  A    between atoms: _256  and  _257
REMARK  102  A    between atoms: _257  and  _258
REMARK  103  A    between atoms: _263  and  _265
REMARK  104  A    between atoms: _265  and  _266
REMARK  105  A    between atoms: _265  and  _268
REMARK  106  A    between atoms: _268  and  _269
REMARK  107  A    between atoms: _272  and  _274
REMARK  108  A    between atoms: _274  and  _275
REMARK  109  A    between atoms: _274  and  _277
REMARK  110  A    between atoms: _277  and  _278
REMARK  111  A    between atoms: _280  and  _282
REMARK  112  A    between atoms: _282  and  _283
REMARK  113  A    between atoms: _282  and  _285
REMARK  114  A    between atoms: _285  and  _286
REMARK  115  A    between atoms: _286  and  _287
REMARK  116  A    between atoms: _287  and  _288
REMARK  117  A    between atoms: _288  and  _289
REMARK  118  A    between atoms: _293  and  _295
REMARK  119  A    between atoms: _295  and  _296
REMARK  120  A    between atoms: _295  and  _298
REMARK  121  A    between atoms: _298  and  _299
REMARK  122  A    between atoms: _302  and  _304
REMARK  123  A    between atoms: _304  and  _305
REMARK  124  A    between atoms: _304  and  _307
REMARK  125  A    between atoms: _307  and  _308
REMARK  126  A    between atoms: _313  and  _315
REMARK  127  A    between atoms: _315  and  _316
REMARK  128  A    between atoms: _315  and  _318
REMARK  129  A    between atoms: _318  and  _319
REMARK  130  A    between atoms: _319  and  _320
REMARK  131  A    between atoms: _325  and  _327
REMARK  132  A    between atoms: _327  and  _328
REMARK  133  A    between atoms: _327  and  _330
REMARK  134  A    between atoms: _330  and  _331
REMARK  135  A    between atoms: _334  and  _336
REMARK  136  A    between atoms: _336  and  _337
REMARK  137  A    between atoms: _336  and  _339
REMARK  138  A    between atoms: _339  and  _340
REMARK  139  A    between atoms: _345  and  _346
REMARK  140  A    between atoms: _348  and  _350
REMARK  141  A    between atoms: _350  and  _351
REMARK  142  A    between atoms: _350  and  _353
REMARK  143  A    between atoms: _353  and  _354
REMARK  144  A    between atoms: _354  and  _355
REMARK  145  A    between atoms: _355  and  _356
REMARK  146  A    between atoms: _365  and  _367
REMARK  147  A    between atoms: _367  and  _368
REMARK  148  A    between atoms: _367  and  _370
REMARK  149  A    between atoms: _370  and  _371
REMARK  150  A    between atoms: _371  and  _372
REMARK  151  A    between atoms: _375  and  _377
REMARK  152  A    between atoms: _377  and  _378
REMARK  153  A    between atoms: _377  and  _380
REMARK  154  A    between atoms: _380  and  _381
REMARK  155  A    between atoms: _383  and  _385
REMARK  156  A    between atoms: _385  and  _386
REMARK  157  A    between atoms: _385  and  _388
REMARK  158  A    between atoms: _388  and  _389
REMARK  159  A    between atoms: _392  and  _394
REMARK  160  A    between atoms: _394  and  _395
REMARK  161  A    between atoms: _394  and  _397
REMARK  162  A    between atoms: _397  and  _398
REMARK  163  A    between atoms: _398  and  _399
REMARK  164  A    between atoms: _399  and  _400
REMARK  165  A    between atoms: _409  and  _411
REMARK  166  A    between atoms: _411  and  _412
REMARK  167  A    between atoms: _411  and  _414
REMARK  168  A    between atoms: _414  and  _415
REMARK  169  A    between atoms: _420  and  _422
REMARK  170  A    between atoms: _422  and  _423
REMARK  171  A    between atoms: _422  and  _425
REMARK  172  A    between atoms: _425  and  _426
REMARK  173  A    between atoms: _429  and  _431
REMARK  174  A    between atoms: _431  and  _432
REMARK  175  A    between atoms: _431  and  _434
REMARK  176  A    between atoms: _434  and  _435
REMARK  177  A    between atoms: _440  and  _441
REMARK  178  A    between atoms: _443  and  _445
REMARK  179  A    between atoms: _445  and  _446
REMARK  180  A    between atoms: _445  and  _448
REMARK  181  A    between atoms: _448  and  _449
REMARK  182  A    between atoms: _452  and  _454
REMARK  183  A    between atoms: _454  and  _455
REMARK  184  A    between atoms: _454  and  _457
REMARK  185  A    between atoms: _457  and  _458
REMARK  186  A    between atoms: _458  and  _459
REMARK  187  A    between atoms: _464  and  _466
REMARK  188  A    between atoms: _466  and  _467
REMARK  189  A    between atoms: _466  and  _469
REMARK  190  A    between atoms: _469  and  _470
REMARK  191  A    between atoms: _470  and  _471
REMARK  192  A    between atoms: _471  and  _472
REMARK  193  A    between atoms: _481  and  _483
REMARK  194  A    between atoms: _483  and  _484
REMARK  195  A    between atoms: _483  and  _486
REMARK  196  A    between atoms: _486  and  _487
REMARK  197  A    between atoms: _487  and  _488
REMARK  198  A    between atoms: _490  and  _492
REMARK  199  A    between atoms: _492  and  _493
REMARK  200  A    between atoms: _492  and  _495
REMARK  201  A    between atoms: _495  and  _496
REMARK  202  A    between atoms: _501  and  _502
REMARK  203  A    between atoms: _504  and  _506
REMARK  204  A    between atoms: _506  and  _507
REMARK  205  A    between atoms: _509  and  _511
REMARK  206  A    between atoms: _511  and  _512
REMARK  207  A    between atoms: _511  and  _514
REMARK  208  A    between atoms: _514  and  _515
REMARK  209  A    between atoms: _515  and  _869
REMARK  210  A    between atoms: _516  and  _518
REMARK  211  A    between atoms: _518  and  _519
REMARK  212  A    between atoms: _518  and  _521
REMARK  213  A    between atoms: _521  and  _522
REMARK  214  A    between atoms: _525  and  _527
REMARK  215  A    between atoms: _527  and  _528
REMARK  216  A    between atoms: _527  and  _530
REMARK  217  A    between atoms: _530  and  _531
REMARK  218  A    between atoms: _531  and  _532
REMARK  219  A    between atoms: _537  and  _539
REMARK  220  A    between atoms: _539  and  _540
REMARK  221  A    between atoms: _539  and  _542
REMARK  222  A    between atoms: _542  and  _543
REMARK  223  A    between atoms: _545  and  _547
REMARK  224  A    between atoms: _547  and  _548
REMARK  225  A    between atoms: _551  and  _553
REMARK  226  A    between atoms: _553  and  _554
REMARK  227  A    between atoms: _553  and  _556
REMARK  228  A    between atoms: _556  and  _557
REMARK  229  A    between atoms: _562  and  _563
REMARK  230  A    between atoms: _565  and  _567
REMARK  231  A    between atoms: _567  and  _568
REMARK  232  A    between atoms: _567  and  _570
REMARK  233  A    between atoms: _570  and  _571
REMARK  234  A    between atoms: _576  and  _577
REMARK  235  A    between atoms: _579  and  _581
REMARK  236  A    between atoms: _581  and  _582
REMARK  237  A    between atoms: _581  and  _584
REMARK  238  A    between atoms: _584  and  _585
REMARK  239  A    between atoms: _588  and  _590
REMARK  240  A    between atoms: _590  and  _591
REMARK  241  A    between atoms: _594  and  _596
REMARK  242  A    between atoms: _596  and  _597
REMARK  243  A    between atoms: _596  and  _599
REMARK  244  A    between atoms: _599  and  _600
REMARK  245  A    between atoms: _610  and  _612
REMARK  246  A    between atoms: _612  and  _613
REMARK  247  A    between atoms: _616  and  _618
REMARK  248  A    between atoms: _618  and  _619
REMARK  249  A    between atoms: _622  and  _624
REMARK  250  A    between atoms: _624  and  _625
REMARK  251  A    between atoms: _624  and  _627
REMARK  252  A    between atoms: _627  and  _628
REMARK  253  A    between atoms: _628  and  _629
REMARK  254  A    between atoms: _634  and  _636
REMARK  255  A    between atoms: _636  and  _637
REMARK  256  A    between atoms: _636  and  _639
REMARK  257  A    between atoms: _639  and  _640
REMARK  258  A    between atoms: _643  and  _645
REMARK  259  A    between atoms: _645  and  _646
REMARK  260  A    between atoms: _645  and  _648
REMARK  261  A    between atoms: _648  and  _649
REMARK  262  A    between atoms: _652  and  _654
REMARK  263  A    between atoms: _654  and  _655
REMARK  264  A    between atoms: _654  and  _657
REMARK  265  A    between atoms: _657  and  _658
REMARK  266  A    between atoms: _658  and  _659
REMARK  267  A    between atoms: _664  and  _666
REMARK  268  A    between atoms: _666  and  _667
REMARK  269  A    between atoms: _666  and  _669
REMARK  270  A    between atoms: _669  and  _670
REMARK  271  A    between atoms: _670  and  _671
REMARK  272  A    between atoms: _671  and  _672
REMARK  273  A    between atoms: _681  and  _683
REMARK  274  A    between atoms: _683  and  _684
REMARK  275  A    between atoms: _683  and  _686
REMARK  276  A    between atoms: _686  and  _687
REMARK  277  A    between atoms: _687  and  _688
REMARK  278  A    between atoms: _688  and  _689
REMARK  279  A    between atoms: _689  and  _690
REMARK  280  A    between atoms: _694  and  _696
REMARK  281  A    between atoms: _696  and  _697
REMARK  282  A    between atoms: _696  and  _699
REMARK  283  A    between atoms: _699  and  _700
REMARK  284  A    between atoms: _710  and  _712
REMARK  285  A    between atoms: _712  and  _713
REMARK  286  A    between atoms: _712  and  _715
REMARK  287  A    between atoms: _715  and  _716
REMARK  288  A    between atoms: _716  and  _717
REMARK  289  A    between atoms: _720  and  _722
REMARK  290  A    between atoms: _722  and  _723
REMARK  291  A    between atoms: _726  and  _728
REMARK  292  A    between atoms: _728  and  _729
REMARK  293  A    between atoms: _732  and  _734
REMARK  294  A    between atoms: _734  and  _735
REMARK  295  A    between atoms: _734  and  _737
REMARK  296  A    between atoms: _737  and  _738
REMARK  297  A    between atoms: _738  and  _739
REMARK  298  A    between atoms: _739  and  _740
REMARK  299  A    between atoms: _749  and  _751
REMARK  300  A    between atoms: _751  and  _752
REMARK  301  A    between atoms: _751  and  _754
REMARK  302  A    between atoms: _754  and  _755
REMARK  303  A    between atoms: _755  and  _756
REMARK  304  A    between atoms: _759  and  _761
REMARK  305  A    between atoms: _761  and  _762
REMARK  306  A    between atoms: _765  and  _767
REMARK  307  A    between atoms: _767  and  _768
REMARK  308  A    between atoms: _767  and  _770
REMARK  309  A    between atoms: _770  and  _771
REMARK  310  A    between atoms: _771  and  _772
REMARK  311  A    between atoms: _775  and  _777
REMARK  312  A    between atoms: _777  and  _778
REMARK  313  A    between atoms: _777  and  _780
REMARK  314  A    between atoms: _780  and  _781
REMARK  315  A    between atoms: _781  and  _782
REMARK  316  A    between atoms: _787  and  _789
REMARK  317  A    between atoms: _789  and  _790
REMARK  318  A    between atoms: _789  and  _792
REMARK  319  A    between atoms: _792  and  _793
REMARK  320  A    between atoms: _803  and  _805
REMARK  321  A    between atoms: _805  and  _806
REMARK  322  A    between atoms: _805  and  _808
REMARK  323  A    between atoms: _808  and  _809
REMARK  324  A    between atoms: _809  and  _810
REMARK  325  A    between atoms: _810  and  _811
REMARK  326  A    between atoms: _820  and  _822
REMARK  327  A    between atoms: _822  and  _823
REMARK  328  A    between atoms: _826  and  _828
REMARK  329  A    between atoms: _828  and  _829
REMARK  330  A    between atoms: _828  and  _831
REMARK  331  A    between atoms: _831  and  _832
REMARK  332  A    between atoms: _837  and  _838
REMARK  333  A    between atoms: _840  and  _842
REMARK  334  A    between atoms: _842  and  _843
REMARK  335  A    between atoms: _842  and  _845
REMARK  336  A    between atoms: _845  and  _846
REMARK  337  A    between atoms: _849  and  _851
REMARK  338  A    between atoms: _851  and  _852
REMARK  339  A    between atoms: _854  and  _856
REMARK  340  A    between atoms: _856  and  _857
REMARK  341  A    between atoms: _856  and  _859
REMARK  342  A    between atoms: _859  and  _860
REMARK  343  A    between atoms: _863  and  _865
REMARK  344  A    between atoms: _865  and  _866
REMARK  345  A    between atoms: _865  and  _868
REMARK  346  A    between atoms: _868  and  _869
REMARK  347  A    between atoms: _870  and  _872
REMARK  348  A    between atoms: _872  and  _873
REMARK  349  A    between atoms: _872  and  _875
REMARK  350  A    between atoms: _878  and  _880
REMARK  351  A    between atoms: _880  and  _881
REMARK  352  A    between atoms: _880  and  _883
REMARK  353  A    between atoms: _883  and  _884
REMARK  354  A    between atoms: _884  and  _885
REMARK  355  A    between atoms: _888  and  _890
REMARK  356  A    between atoms: _890  and  _891
REMARK  357  A    between atoms: _890  and  _893
REMARK  358  A    between atoms: _893  and  _894
REMARK  359  A    between atoms: _904  and  _906
REMARK  360  A    between atoms: _906  and  _907
REMARK  361  A    between atoms: _906  and  _909
REMARK  362  A    between atoms: _909  and  _910
REMARK  363  A    between atoms: _913  and  _915
REMARK  364  A    between atoms: _915  and  _916
REMARK  365  A    between atoms: _915  and  _918
REMARK  366  A    between atoms: _918  and  _919
REMARK  367  A    between atoms: _919  and  _920
REMARK  368  A    between atoms: _920  and  _921
REMARK  369  A    between atoms: _930  and  _932
REMARK  370  A    between atoms: _932  and  _933
REMARK  371  A    between atoms: _932  and  _935
REMARK  372  A    between atoms: _935  and  _936
REMARK  373  A    between atoms: _941  and  _942
REMARK  374  A    between atoms: _944  and  _946
REMARK  375  A    between atoms: _946  and  _947
REMARK  376  A    between atoms: _946  and  _949
REMARK  377  A    between atoms: _949  and  _950
REMARK                            x       y       z     vdW  Elec       q    Type
REMARK                         _______ _______ _______ _____ _____    ______ ____
ROOT
ATOM      1  O   HOH     1      25.987  23.481  36.474  0.00  0.00    +0.000 OA
ENDROOT
TORSDOF 0
REMARK  Name = ../refined-set-2016/1xr9/1xr9_pocket.pdb
REMARK  377 active torsions:
REMARK  status: ('A' for Active; 'I' for Inactive)
REMARK    1  A    between atoms: _1  and  _3
REMARK    2  A    between atoms: _3  and  _4
REMARK    3  A    between atoms: _3  and  _6
REMARK    4  A    between atoms: _6  and  _7
REMARK    5  A    between atoms: _7  and  _8
REMARK    6  A    between atoms: _10  and  _12
REMARK    7  A    between atoms: _12  and  _13
REMARK    8  A    between atoms: _12  and  _15
REMARK    9  A    between atoms: _15  and  _16
REMARK   10  A    between atoms: _16  and  _17
REMARK   11  A    between atoms: _17  and  _18
REMARK   12  A    between atoms: _27  and  _29
REMARK   13  A    between atoms: _29  and  _30
REMARK   14  A    between atoms: _29  and  _32
REMARK   15  A    between atoms: _32  and  _33
REMARK   16  A    between atoms: _38  and  _39
REMARK   17  A    between atoms: _41  and  _43
REMARK   18  A    between atoms: _43  and  _44
REMARK   19  A    between atoms: _43  and  _46
REMARK   20  A    between atoms: _46  and  _47
REMARK   21  A    between atoms: _53  and  _55
REMARK   22  A    between atoms: _55  and  _56
REMARK   23  A    between atoms: _55  and  _58
REMARK   24  A    between atoms: _58  and  _59
REMARK   25  A    between atoms: _64  and  _65
REMARK   26  A    between atoms: _67  and  _69
REMARK   27  A    between atoms: _69  and  _70
REMARK   28  A    between atoms: _69  and  _72
REMARK   29  A    between atoms: _72  and  _73
REMARK   30  A    between atoms: _79  and  _81
REMARK   31  A    between atoms: _81  and  _82
REMARK   32  A    between atoms: _85  and  _87
REMARK   33  A    between atoms: _87  and  _88
REMARK   34  A    between atoms: _87  and  _90
REMARK   35  A    between atoms: _93  and  _95
REMARK   36  A    between atoms: _95  and  _96
REMARK   37  A    between atoms: _98  and  _100
REMARK   38  A    between atoms: _100  and  _101
REMARK   39  A    between atoms: _100  and  _103
REMARK   40  A    between atoms: _106  and  _108
REMARK   41  A    between atoms: _108  and  _109
REMARK   42  A    between atoms: _108  and  _111
REMARK   43  A    between atoms: _111  and  _112
REMARK   44  A    between atoms: _118  and  _120
REMARK   45  A    between atoms: _120  and  _121
REMARK   46  A    between atoms: _120  and  _123
REMARK   47  A    between atoms: _126  and  _128
REMARK   48  A    between atoms: _128  and  _129
REMARK   49  A    between atoms: _128  and  _131
REMARK   50  A    between atoms: _131  and  _132
REMARK   51  A    between atoms: _138  and  _140
REMARK   52  A    between atoms: _140  and  _141
REMARK   53  A    between atoms: _140  and  _143
REMARK   54  A    between atoms: _143  and  _144
REMARK   55  A    between atoms: _144  and  _145
REMARK   56  A    between atoms: _147  and  _149
REMARK   57  A    between atoms: _149  and  _150
REMARK   58  A    between atoms: _149  and  _152
REMARK   59  A    between atoms: _152  and  _153
REMARK   60  A    between atoms: _156  and  _158
REMARK   61  A    between atoms: _158  and  _159
REMARK   62  A    between atoms: _158  and  _161
REMARK   63  A    between atoms: _161  and  _162
REMARK   64  A    between atoms: _162  and  _163
REMARK   65  A    between atoms: _166  and  _168
REMARK   66  A    between atoms: _168  and  _169
REMARK   67  A    between atoms: _168  and  _171
REMARK   68  A    between atoms: _171  and  _172
REMARK   69  A    between atoms: _172  and  _173
REMARK   70  A    between atoms: _176  and  _178
REMARK   71  A    between atoms: _178  and  _179
REMARK   72  A    between atoms: _178  and  _181
REMARK   73  A    between atoms: _181  and  _182
REMARK   74  A    between atoms: _187  and  _188
REMARK   75  A    between atoms: _190  and  _192
REMARK   76  A    between atoms: _192  and  _193
REMARK   77  A    between atoms: _192  and  _195
REMARK   78  A    between atoms: _195  and  _196
REMARK   79  A    between atoms: _206  and  _208
REMARK   80  A    between atoms: _208  and  _209
REMARK   81  A    between atoms: _208  and  _211
REMARK   82  A    between atoms: _211  and  _212
REMARK   83  A    between atoms: _215  and  _217
REMARK   84  A    between atoms: _217  and  _218
REMARK   85  A    between atoms: _217  and  _220
REMARK   86  A    between atoms: _220  and  _221
REMARK   87  A    between atoms: _221  and  _222
REMARK   88  A    between atoms: _222  and  _223
REMARK   89  A    between atoms: _232  and  _234
REMARK   90  A    between atoms: _234  and  _235
REMARK   91  A    between atoms: _234  and  _237
REMARK   92  A    between atoms: _237  and  _238
REMARK   93  A    between atoms: _238  and  _239
REMARK   94  A    between atoms: _242  and  _244
REMARK   95  A    between atoms: _244  and  _245
REMARK   96  A    between atoms: _244  and  _247
REMARK   97  A    between atoms: _247  and  _248
REMARK   98  A    between atoms: _251  and  _253
REMARK   99  A    between atoms: _253  and  _254
REMARK  100  A    between atoms: _253  and  _256
REMARK  101  A    between atoms: _256  and  _257
REMARK  102  A    between atoms: _257  and  _258
REMARK  103  A    between atoms: _263  and  _265
REMARK  104  A    between atoms: _265  and  _266
REMARK  105  A    between atoms: _265  and  _268
REMARK  106  A    between atoms: _268  and  _269
REMARK  107  A    between atoms: _272  and  _274
REMARK  108  A    between atoms: _274  and  _275
REMARK  109  A    between atoms: _274  and  _277
REMARK  110  A    between atoms: _277  and  _278
REMARK  111  A    between atoms: _280  and  _282
REMARK  112  A    between atoms: _282  and  _283
REMARK  113  A    between atoms: _282  and  _285
REMARK  114  A    between atoms: _285  and  _286
REMARK  115  A    between atoms: _286  and  _287
REMARK  116  A    between atoms: _287  and  _288
REMARK  117  A    between atoms: _288  and  _289
REMARK  118  A    between atoms: _293  and  _295
REMARK  119  A    between atoms: _295  and  _296
REMARK  120  A    between atoms: _295  and  _298
REMARK  121  A    between atoms: _298  and  _299
REMARK  122  A    between atoms: _302  and  _304
REMARK  123  A    between atoms: _304  and  _305
REMARK  124  A    between atoms: _304  and  _307
REMARK  125  A    between atoms: _307  and  _308
REMARK  126  A    between atoms: _313  and  _315
REMARK  127  A    between atoms: _315  and  _316
REMARK  128  A    between atoms: _315  and  _318
REMARK  129  A    between atoms: _318  and  _319
REMARK  130  A    between atoms: _319  and  _320
REMARK  131  A    between atoms: _325  and  _327
REMARK  132  A    between atoms: _327  and  _328
REMARK  133  A    between atoms: _327  and  _330
REMARK  134  A    between atoms: _330  and  _331
REMARK  135  A    between atoms: _334  and  _336
REMARK  136  A    between atoms: _336  and  _337
REMARK  137  A    between atoms: _336  and  _339
REMARK  138  A    between atoms: _339  and  _340
REMARK  139  A    between atoms: _345  and  _346
REMARK  140  A    between atoms: _348  and  _350
REMARK  141  A    between atoms: _350  and  _351
REMARK  142  A    between atoms: _350  and  _353
REMARK  143  A    between atoms: _353  and  _354
REMARK  144  A    between atoms: _354  and  _355
REMARK  145  A    between atoms: _355  and  _356
REMARK  146  A    between atoms: _365  and  _367
REMARK  147  A    between atoms: _367  and  _368
REMARK  148  A    between atoms: _367  and  _370
REMARK  149  A    between atoms: _370  and  _371
REMARK  150  A    between atoms: _371  and  _372
REMARK  151  A    between atoms: _375  and  _377
REMARK  152  A    between atoms: _377  and  _378
REMARK  153  A    between atoms: _377  and  _380
REMARK  154  A    between atoms: _380  and  _381
REMARK  155  A    between atoms: _383  and  _385
REMARK  156  A    between atoms: _385  and  _386
REMARK  157  A    between atoms: _385  and  _388
REMARK  158  A    between atoms: _388  and  _389
REMARK  159  A    between atoms: _392  and  _394
REMARK  160  A    between atoms: _394  and  _395
REMARK  161  A    between atoms: _394  and  _397
REMARK  162  A    between atoms: _397  and  _398
REMARK  163  A    between atoms: _398  and  _399
REMARK  164  A    between atoms: _399  and  _400
REMARK  165  A    between atoms: _409  and  _411
REMARK  166  A    between atoms: _411  and  _412
REMARK  167  A    between atoms: _411  and  _414
REMARK  168  A    between atoms: _414  and  _415
REMARK  169  A    between atoms: _420  and  _422
REMARK  170  A    between atoms: _422  and  _423
REMARK  171  A    between atoms: _422  and  _425
REMARK  172  A    between atoms: _425  and  _426
REMARK  173  A    between atoms: _429  and  _431
REMARK  174  A    between atoms: _431  and  _432
REMARK  175  A    between atoms: _431  and  _434
REMARK  176  A    between atoms: _434  and  _435
REMARK  177  A    between atoms: _440  and  _441
REMARK  178  A    between atoms: _443  and  _445
REMARK  179  A    between atoms: _445  and  _446
REMARK  180  A    between atoms: _445  and  _448
REMARK  181  A    between atoms: _448  and  _449
REMARK  182  A    between atoms: _452  and  _454
REMARK  183  A    between atoms: _454  and  _455
REMARK  184  A    between atoms: _454  and  _457
REMARK  185  A    between atoms: _457  and  _458
REMARK  186  A    between atoms: _458  and  _459
REMARK  187  A    between atoms: _464  and  _466
REMARK  188  A    between atoms: _466  and  _467
REMARK  189  A    between atoms: _466  and  _469
REMARK  190  A    between atoms: _469  and  _470
REMARK  191  A    between atoms: _470  and  _471
REMARK  192  A    between atoms: _471  and  _472
REMARK  193  A    between atoms: _481  and  _483
REMARK  194  A    between atoms: _483  and  _484
REMARK  195  A    between atoms: _483  and  _486
REMARK  196  A    between atoms: _486  and  _487
REMARK  197  A    between atoms: _487  and  _488
REMARK  198  A    between atoms: _490  and  _492
REMARK  199  A    between atoms: _492  and  _493
REMARK  200  A    between atoms: _492  and  _495
REMARK  201  A    between atoms: _495  and  _496
REMARK  202  A    between atoms: _501  and  _502
REMARK  203  A    between atoms: _504  and  _506
REMARK  204  A    between atoms: _506  and  _507
REMARK  205  A    between atoms: _509  and  _511
REMARK  206  A    between atoms: _511  and  _512
REMARK  207  A    between atoms: _511  and  _514
REMARK  208  A    between atoms: _514  and  _515
REMARK  209  A    between atoms: _515  and  _869
REMARK  210  A    between atoms: _516  and  _518
REMARK  211  A    between atoms: _518  and  _519
REMARK  212  A    between atoms: _518  and  _521
REMARK  213  A    between atoms: _521  and  _522
REMARK  214  A    between atoms: _525  and  _527
REMARK  215  A    between atoms: _527  and  _528
REMARK  216  A    between atoms: _527  and  _530
REMARK  217  A    between atoms: _530  and  _531
REMARK  218  A    between atoms: _531  and  _532
REMARK  219  A    between atoms: _537  and  _539
REMARK  220  A    between atoms: _539  and  _540
REMARK  221  A    between atoms: _539  and  _542
REMARK  222  A    between atoms: _542  and  _543
REMARK  223  A    between atoms: _545  and  _547
REMARK  224  A    between atoms: _547  and  _548
REMARK  225  A    between atoms: _551  and  _553
REMARK  226  A    between atoms: _553  and  _554
REMARK  227  A    between atoms: _553  and  _556
REMARK  228  A    between atoms: _556  and  _557
REMARK  229  A    between atoms: _562  and  _563
REMARK  230  A    between atoms: _565  and  _567
REMARK  231  A    between atoms: _567  and  _568
REMARK  232  A    between atoms: _567  and  _570
REMARK  233  A    between atoms: _570  and  _571
REMARK  234  A    between atoms: _576  and  _577
REMARK  235  A    between atoms: _579  and  _581
REMARK  236  A    between atoms: _581  and  _582
REMARK  237  A    between atoms: _581  and  _584
REMARK  238  A    between atoms: _584  and  _585
REMARK  239  A    between atoms: _588  and  _590
REMARK  240  A    between atoms: _590  and  _591
REMARK  241  A    between atoms: _594  and  _596
REMARK  242  A    between atoms: _596  and  _597
REMARK  243  A    between atoms: _596  and  _599
REMARK  244  A    between atoms: _599  and  _600
REMARK  245  A    between atoms: _610  and  _612
REMARK  246  A    between atoms: _612  and  _613
REMARK  247  A    between atoms: _616  and  _618
REMARK  248  A    between atoms: _618  and  _619
REMARK  249  A    between atoms: _622  and  _624
REMARK  250  A    between atoms: _624  and  _625
REMARK  251  A    between atoms: _624  and  _627
REMARK  252  A    between atoms: _627  and  _628
REMARK  253  A    between atoms: _628  and  _629
REMARK  254  A    between atoms: _634  and  _636
REMARK  255  A    between atoms: _636  and  _637
REMARK  256  A    between atoms: _636  and  _639
REMARK  257  A    between atoms: _639  and  _640
REMARK  258  A    between atoms: _643  and  _645
REMARK  259  A    between atoms: _645  and  _646
REMARK  260  A    between atoms: _645  and  _648
REMARK  261  A    between atoms: _648  and  _649
REMARK  262  A    between atoms: _652  and  _654
REMARK  263  A    between atoms: _654  and  _655
REMARK  264  A    between atoms: _654  and  _657
REMARK  265  A    between atoms: _657  and  _658
REMARK  266  A    between atoms: _658  and  _659
REMARK  267  A    between atoms: _664  and  _666
REMARK  268  A    between atoms: _666  and  _667
REMARK  269  A    between atoms: _666  and  _669
REMARK  270  A    between atoms: _669  and  _670
REMARK  271  A    between atoms: _670  and  _671
REMARK  272  A    between atoms: _671  and  _672
REMARK  273  A    between atoms: _681  and  _683
REMARK  274  A    between atoms: _683  and  _684
REMARK  275  A    between atoms: _683  and  _686
REMARK  276  A    between atoms: _686  and  _687
REMARK  277  A    between atoms: _687  and  _688
REMARK  278  A    between atoms: _688  and  _689
REMARK  279  A    between atoms: _689  and  _690
REMARK  280  A    between atoms: _694  and  _696
REMARK  281  A    between atoms: _696  and  _697
REMARK  282  A    between atoms: _696  and  _699
REMARK  283  A    between atoms: _699  and  _700
REMARK  284  A    between atoms: _710  and  _712
REMARK  285  A    between atoms: _712  and  _713
REMARK  286  A    between atoms: _712  and  _715
REMARK  287  A    between atoms: _715  and  _716
REMARK  288  A    between atoms: _716  and  _717
REMARK  289  A    between atoms: _720  and  _722
REMARK  290  A    between atoms: _722  and  _723
REMARK  291  A    between atoms: _726  and  _728
REMARK  292  A    between atoms: _728  and  _729
REMARK  293  A    between atoms: _732  and  _734
REMARK  294  A    between atoms: _734  and  _735
REMARK  295  A    between atoms: _734  and  _737
REMARK  296  A    between atoms: _737  and  _738
REMARK  297  A    between atoms: _738  and  _739
REMARK  298  A    between atoms: _739  and  _740
REMARK  299  A    between atoms: _749  and  _751
REMARK  300  A    between atoms: _751  and  _752
REMARK  301  A    between atoms: _751  and  _754
REMARK  302  A    between atoms: _754  and  _755
REMARK  303  A    between atoms: _755  and  _756
REMARK  304  A    between atoms: _759  and  _761
REMARK  305  A    between atoms: _761  and  _762
REMARK  306  A    between atoms: _765  and  _767
REMARK  307  A    between atoms: _767  and  _768
REMARK  308  A    between atoms: _767  and  _770
REMARK  309  A    between atoms: _770  and  _771
REMARK  310  A    between atoms: _771  and  _772
REMARK  311  A    between atoms: _775  and  _777
REMARK  312  A    between atoms: _777  and  _778
REMARK  313  A    between atoms: _777  and  _780
REMARK  314  A    between atoms: _780  and  _781
REMARK  315  A    between atoms: _781  and  _782
REMARK  316  A    between atoms: _787  and  _789
REMARK  317  A    between atoms: _789  and  _790
REMARK  318  A    between atoms: _789  and  _792
REMARK  319  A    between atoms: _792  and  _793
REMARK  320  A    between atoms: _803  and  _805
REMARK  321  A    between atoms: _805  and  _806
REMARK  322  A    between atoms: _805  and  _808
REMARK  323  A    between atoms: _808  and  _809
REMARK  324  A    between atoms: _809  and  _810
REMARK  325  A    between atoms: _810  and  _811
REMARK  326  A    between atoms: _820  and  _822
REMARK  327  A    between atoms: _822  and  _823
REMARK  328  A    between atoms: _826  and  _828
REMARK  329  A    between atoms: _828  and  _829
REMARK  330  A    between atoms: _828  and  _831
REMARK  331  A    between atoms: _831  and  _832
REMARK  332  A    between atoms: _837  and  _838
REMARK  333  A    between atoms: _840  and  _842
REMARK  334  A    between atoms: _842  and  _843
REMARK  335  A    between atoms: _842  and  _845
REMARK  336  A    between atoms: _845  and  _846
REMARK  337  A    between atoms: _849  and  _851
REMARK  338  A    between atoms: _851  and  _852
REMARK  339  A    between atoms: _854  and  _856
REMARK  340  A    between atoms: _856  and  _857
REMARK  341  A    between atoms: _856  and  _859
REMARK  342  A    between atoms: _859  and  _860
REMARK  343  A    between atoms: _863  and  _865
REMARK  344  A    between atoms: _865  and  _866
REMARK  345  A    between atoms: _865  and  _868
REMARK  346  A    between atoms: _868  and  _869
REMARK  347  A    between atoms: _870  and  _872
REMARK  348  A    between atoms: _872  and  _873
REMARK  349  A    between atoms: _872  and  _875
REMARK  350  A    between atoms: _878  and  _880
REMARK  351  A    between atoms: _880  and  _881
REMARK  352  A    between atoms: _880  and  _883
REMARK  353  A    between atoms: _883  and  _884
REMARK  354  A    between atoms: _884  and  _885
REMARK  355  A    between atoms: _888  and  _890
REMARK  356  A    between atoms: _890  and  _891
REMARK  357  A    between atoms: _890  and  _893
REMARK  358  A    between atoms: _893  and  _894
REMARK  359  A    between atoms: _904  and  _906
REMARK  360  A    between atoms: _906  and  _907
REMARK  361  A    between atoms: _906  and  _909
REMARK  362  A    between atoms: _909  and  _910
REMARK  363  A    between atoms: _913  and  _915
REMARK  364  A    between atoms: _915  and  _916
REMARK  365  A    between atoms: _915  and  _918
REMARK  366  A    between atoms: _918  and  _919
REMARK  367  A    between atoms: _919  and  _920
REMARK  368  A    between atoms: _920  and  _921
REMARK  369  A    between atoms: _930  and  _932
REMARK  370  A    between atoms: _932  and  _933
REMARK  371  A    between atoms: _932  and  _935
REMARK  372  A    between atoms: _935  and  _936
REMARK  373  A    between atoms: _941  and  _942
REMARK  374  A    between atoms: _944  and  _946
REMARK  375  A    between atoms: _946  and  _947
REMARK  376  A    between atoms: _946  and  _949
REMARK  377  A    between atoms: _949  and  _950
REMARK                            x       y       z     vdW  Elec       q    Type
REMARK                         _______ _______ _______ _____ _____    ______ ____
ROOT
ATOM      1  O   HOH     1      26.636  28.207  34.083  0.00  0.00    +0.000 OA
ENDROOT
TORSDOF 0
REMARK  Name = ../refined-set-2016/1xr9/1xr9_pocket.pdb
REMARK  377 active torsions:
REMARK  status: ('A' for Active; 'I' for Inactive)
REMARK    1  A    between atoms: _1  and  _3
REMARK    2  A    between atoms: _3  and  _4
REMARK    3  A    between atoms: _3  and  _6
REMARK    4  A    between atoms: _6  and  _7
REMARK    5  A    between atoms: _7  and  _8
REMARK    6  A    between atoms: _10  and  _12
REMARK    7  A    between atoms: _12  and  _13
REMARK    8  A    between atoms: _12  and  _15
REMARK    9  A    between atoms: _15  and  _16
REMARK   10  A    between atoms: _16  and  _17
REMARK   11  A    between atoms: _17  and  _18
REMARK   12  A    between atoms: _27  and  _29
REMARK   13  A    between atoms: _29  and  _30
REMARK   14  A    between atoms: _29  and  _32
REMARK   15  A    between atoms: _32  and  _33
REMARK   16  A    between atoms: _38  and  _39
REMARK   17  A    between atoms: _41  and  _43
REMARK   18  A    between atoms: _43  and  _44
REMARK   19  A    between atoms: _43  and  _46
REMARK   20  A    between atoms: _46  and  _47
REMARK   21  A    between atoms: _53  and  _55
REMARK   22  A    between atoms: _55  and  _56
REMARK   23  A    between atoms: _55  and  _58
REMARK   24  A    between atoms: _58  and  _59
REMARK   25  A    between atoms: _64  and  _65
REMARK   26  A    between atoms: _67  and  _69
REMARK   27  A    between atoms: _69  and  _70
REMARK   28  A    between atoms: _69  and  _72
REMARK   29  A    between atoms: _72  and  _73
REMARK   30  A    between atoms: _79  and  _81
REMARK   31  A    between atoms: _81  and  _82
REMARK   32  A    between atoms: _85  and  _87
REMARK   33  A    between atoms: _87  and  _88
REMARK   34  A    between atoms: _87  and  _90
REMARK   35  A    between atoms: _93  and  _95
REMARK   36  A    between atoms: _95  and  _96
REMARK   37  A    between atoms: _98  and  _100
REMARK   38  A    between atoms: _100  and  _101
REMARK   39  A    between atoms: _100  and  _103
REMARK   40  A    between atoms: _106  and  _108
REMARK   41  A    between atoms: _108  and  _109
REMARK   42  A    between atoms: _108  and  _111
REMARK   43  A    between atoms: _111  and  _112
REMARK   44  A    between atoms: _118  and  _120
REMARK   45  A    between atoms: _120  and  _121
REMARK   46  A    between atoms: _120  and  _123
REMARK   47  A    between atoms: _126  and  _128
REMARK   48  A    between atoms: _128  and  _129
REMARK   49  A    between atoms: _128  and  _131
REMARK   50  A    between atoms: _131  and  _132
REMARK   51  A    between atoms: _138  and  _140
REMARK   52  A    between atoms: _140  and  _141
REMARK   53  A    between atoms: _140  and  _143
REMARK   54  A    between atoms: _143  and  _144
REMARK   55  A    between atoms: _144  and  _145
REMARK   56  A    between atoms: _147  and  _149
REMARK   57  A    between atoms: _149  and  _150
REMARK   58  A    between atoms: _149  and  _152
REMARK   59  A    between atoms: _152  and  _153
REMARK   60  A    between atoms: _156  and  _158
REMARK   61  A    between atoms: _158  and  _159
REMARK   62  A    between atoms: _158  and  _161
REMARK   63  A    between atoms: _161  and  _162
REMARK   64  A    between atoms: _162  and  _163
REMARK   65  A    between atoms: _166  and  _168
REMARK   66  A    between atoms: _168  and  _169
REMARK   67  A    between atoms: _168  and  _171
REMARK   68  A    between atoms: _171  and  _172
REMARK   69  A    between atoms: _172  and  _173
REMARK   70  A    between atoms: _176  and  _178
REMARK   71  A    between atoms: _178  and  _179
REMARK   72  A    between atoms: _178  and  _181
REMARK   73  A    between atoms: _181  and  _182
REMARK   74  A    between atoms: _187  and  _188
REMARK   75  A    between atoms: _190  and  _192
REMARK   76  A    between atoms: _192  and  _193
REMARK   77  A    between atoms: _192  and  _195
REMARK   78  A    between atoms: _195  and  _196
REMARK   79  A    between atoms: _206  and  _208
REMARK   80  A    between atoms: _208  and  _209
REMARK   81  A    between atoms: _208  and  _211
REMARK   82  A    between atoms: _211  and  _212
REMARK   83  A    between atoms: _215  and  _217
REMARK   84  A    between atoms: _217  and  _218
REMARK   85  A    between atoms: _217  and  _220
REMARK   86  A    between atoms: _220  and  _221
REMARK   87  A    between atoms: _221  and  _222
REMARK   88  A    between atoms: _222  and  _223
REMARK   89  A    between atoms: _232  and  _234
REMARK   90  A    between atoms: _234  and  _235
REMARK   91  A    between atoms: _234  and  _237
REMARK   92  A    between atoms: _237  and  _238
REMARK   93  A    between atoms: _238  and  _239
REMARK   94  A    between atoms: _242  and  _244
REMARK   95  A    between atoms: _244  and  _245
REMARK   96  A    between atoms: _244  and  _247
REMARK   97  A    between atoms: _247  and  _248
REMARK   98  A    between atoms: _251  and  _253
REMARK   99  A    between atoms: _253  and  _254
REMARK  100  A    between atoms: _253  and  _256
REMARK  101  A    between atoms: _256  and  _257
REMARK  102  A    between atoms: _257  and  _258
REMARK  103  A    between atoms: _263  and  _265
REMARK  104  A    between atoms: _265  and  _266
REMARK  105  A    between atoms: _265  and  _268
REMARK  106  A    between atoms: _268  and  _269
REMARK  107  A    between atoms: _272  and  _274
REMARK  108  A    between atoms: _274  and  _275
REMARK  109  A    between atoms: _274  and  _277
REMARK  110  A    between atoms: _277  and  _278
REMARK  111  A    between atoms: _280  and  _282
REMARK  112  A    between atoms: _282  and  _283
REMARK  113  A    between atoms: _282  and  _285
REMARK  114  A    between atoms: _285  and  _286
REMARK  115  A    between atoms: _286  and  _287
REMARK  116  A    between atoms: _287  and  _288
REMARK  117  A    between atoms: _288  and  _289
REMARK  118  A    between atoms: _293  and  _295
REMARK  119  A    between atoms: _295  and  _296
REMARK  120  A    between atoms: _295  and  _298
REMARK  121  A    between atoms: _298  and  _299
REMARK  122  A    between atoms: _302  and  _304
REMARK  123  A    between atoms: _304  and  _305
REMARK  124  A    between atoms: _304  and  _307
REMARK  125  A    between atoms: _307  and  _308
REMARK  126  A    between atoms: _313  and  _315
REMARK  127  A    between atoms: _315  and  _316
REMARK  128  A    between atoms: _315  and  _318
REMARK  129  A    between atoms: _318  and  _319
REMARK  130  A    between atoms: _319  and  _320
REMARK  131  A    between atoms: _325  and  _327
REMARK  132  A    between atoms: _327  and  _328
REMARK  133  A    between atoms: _327  and  _330
REMARK  134  A    between atoms: _330  and  _331
REMARK  135  A    between atoms: _334  and  _336
REMARK  136  A    between atoms: _336  and  _337
REMARK  137  A    between atoms: _336  and  _339
REMARK  138  A    between atoms: _339  and  _340
REMARK  139  A    between atoms: _345  and  _346
REMARK  140  A    between atoms: _348  and  _350
REMARK  141  A    between atoms: _350  and  _351
REMARK  142  A    between atoms: _350  and  _353
REMARK  143  A    between atoms: _353  and  _354
REMARK  144  A    between atoms: _354  and  _355
REMARK  145  A    between atoms: _355  and  _356
REMARK  146  A    between atoms: _365  and  _367
REMARK  147  A    between atoms: _367  and  _368
REMARK  148  A    between atoms: _367  and  _370
REMARK  149  A    between atoms: _370  and  _371
REMARK  150  A    between atoms: _371  and  _372
REMARK  151  A    between atoms: _375  and  _377
REMARK  152  A    between atoms: _377  and  _378
REMARK  153  A    between atoms: _377  and  _380
REMARK  154  A    between atoms: _380  and  _381
REMARK  155  A    between atoms: _383  and  _385
REMARK  156  A    between atoms: _385  and  _386
REMARK  157  A    between atoms: _385  and  _388
REMARK  158  A    between atoms: _388  and  _389
REMARK  159  A    between atoms: _392  and  _394
REMARK  160  A    between atoms: _394  and  _395
REMARK  161  A    between atoms: _394  and  _397
REMARK  162  A    between atoms: _397  and  _398
REMARK  163  A    between atoms: _398  and  _399
REMARK  164  A    between atoms: _399  and  _400
REMARK  165  A    between atoms: _409  and  _411
REMARK  166  A    between atoms: _411  and  _412
REMARK  167  A    between atoms: _411  and  _414
REMARK  168  A    between atoms: _414  and  _415
REMARK  169  A    between atoms: _420  and  _422
REMARK  170  A    between atoms: _422  and  _423
REMARK  171  A    between atoms: _422  and  _425
REMARK  172  A    between atoms: _425  and  _426
REMARK  173  A    between atoms: _429  and  _431
REMARK  174  A    between atoms: _431  and  _432
REMARK  175  A    between atoms: _431  and  _434
REMARK  176  A    between atoms: _434  and  _435
REMARK  177  A    between atoms: _440  and  _441
REMARK  178  A    between atoms: _443  and  _445
REMARK  179  A    between atoms: _445  and  _446
REMARK  180  A    between atoms: _445  and  _448
REMARK  181  A    between atoms: _448  and  _449
REMARK  182  A    between atoms: _452  and  _454
REMARK  183  A    between atoms: _454  and  _455
REMARK  184  A    between atoms: _454  and  _457
REMARK  185  A    between atoms: _457  and  _458
REMARK  186  A    between atoms: _458  and  _459
REMARK  187  A    between atoms: _464  and  _466
REMARK  188  A    between atoms: _466  and  _467
REMARK  189  A    between atoms: _466  and  _469
REMARK  190  A    between atoms: _469  and  _470
REMARK  191  A    between atoms: _470  and  _471
REMARK  192  A    between atoms: _471  and  _472
REMARK  193  A    between atoms: _481  and  _483
REMARK  194  A    between atoms: _483  and  _484
REMARK  195  A    between atoms: _483  and  _486
REMARK  196  A    between atoms: _486  and  _487
REMARK  197  A    between atoms: _487  and  _488
REMARK  198  A    between atoms: _490  and  _492
REMARK  199  A    between atoms: _492  and  _493
REMARK  200  A    between atoms: _492  and  _495
REMARK  201  A    between atoms: _495  and  _496
REMARK  202  A    between atoms: _501  and  _502
REMARK  203  A    between atoms: _504  and  _506
REMARK  204  A    between atoms: _506  and  _507
REMARK  205  A    between atoms: _509  and  _511
REMARK  206  A    between atoms: _511  and  _512
REMARK  207  A    between atoms: _511  and  _514
REMARK  208  A    between atoms: _514  and  _515
REMARK  209  A    between atoms: _515  and  _869
REMARK  210  A    between atoms: _516  and  _518
REMARK  211  A    between atoms: _518  and  _519
REMARK  212  A    between atoms: _518  and  _521
REMARK  213  A    between atoms: _521  and  _522
REMARK  214  A    between atoms: _525  and  _527
REMARK  215  A    between atoms: _527  and  _528
REMARK  216  A    between atoms: _527  and  _530
REMARK  217  A    between atoms: _530  and  _531
REMARK  218  A    between atoms: _531  and  _532
REMARK  219  A    between atoms: _537  and  _539
REMARK  220  A    between atoms: _539  and  _540
REMARK  221  A    between atoms: _539  and  _542
REMARK  222  A    between atoms: _542  and  _543
REMARK  223  A    between atoms: _545  and  _547
REMARK  224  A    between atoms: _547  and  _548
REMARK  225  A    between atoms: _551  and  _553
REMARK  226  A    between atoms: _553  and  _554
REMARK  227  A    between atoms: _553  and  _556
REMARK  228  A    between atoms: _556  and  _557
REMARK  229  A    between atoms: _562  and  _563
REMARK  230  A    between atoms: _565  and  _567
REMARK  231  A    between atoms: _567  and  _568
REMARK  232  A    between atoms: _567  and  _570
REMARK  233  A    between atoms: _570  and  _571
REMARK  234  A    between atoms: _576  and  _577
REMARK  235  A    between atoms: _579  and  _581
REMARK  236  A    between atoms: _581  and  _582
REMARK  237  A    between atoms: _581  and  _584
REMARK  238  A    between atoms: _584  and  _585
REMARK  239  A    between atoms: _588  and  _590
REMARK  240  A    between atoms: _590  and  _591
REMARK  241  A    between atoms: _594  and  _596
REMARK  242  A    between atoms: _596  and  _597
REMARK  243  A    between atoms: _596  and  _599
REMARK  244  A    between atoms: _599  and  _600
REMARK  245  A    between atoms: _610  and  _612
REMARK  246  A    between atoms: _612  and  _613
REMARK  247  A    between atoms: _616  and  _618
REMARK  248  A    between atoms: _618  and  _619
REMARK  249  A    between atoms: _622  and  _624
REMARK  250  A    between atoms: _624  and  _625
REMARK  251  A    between atoms: _624  and  _627
REMARK  252  A    between atoms: _627  and  _628
REMARK  253  A    between atoms: _628  and  _629
REMARK  254  A    between atoms: _634  and  _636
REMARK  255  A    between atoms: _636  and  _637
REMARK  256  A    between atoms: _636  and  _639
REMARK  257  A    between atoms: _639  and  _640
REMARK  258  A    between atoms: _643  and  _645
REMARK  259  A    between atoms: _645  and  _646
REMARK  260  A    between atoms: _645  and  _648
REMARK  261  A    between atoms: _648  and  _649
REMARK  262  A    between atoms: _652  and  _654
REMARK  263  A    between atoms: _654  and  _655
REMARK  264  A    between atoms: _654  and  _657
REMARK  265  A    between atoms: _657  and  _658
REMARK  266  A    between atoms: _658  and  _659
REMARK  267  A    between atoms: _664  and  _666
REMARK  268  A    between atoms: _666  and  _667
REMARK  269  A    between atoms: _666  and  _669
REMARK  270  A    between atoms: _669  and  _670
REMARK  271  A    between atoms: _670  and  _671
REMARK  272  A    between atoms: _671  and  _672
REMARK  273  A    between atoms: _681  and  _683
REMARK  274  A    between atoms: _683  and  _684
REMARK  275  A    between atoms: _683  and  _686
REMARK  276  A    between atoms: _686  and  _687
REMARK  277  A    between atoms: _687  and  _688
REMARK  278  A    between atoms: _688  and  _689
REMARK  279  A    between atoms: _689  and  _690
REMARK  280  A    between atoms: _694  and  _696
REMARK  281  A    between atoms: _696  and  _697
REMARK  282  A    between atoms: _696  and  _699
REMARK  283  A    between atoms: _699  and  _700
REMARK  284  A    between atoms: _710  and  _712
REMARK  285  A    between atoms: _712  and  _713
REMARK  286  A    between atoms: _712  and  _715
REMARK  287  A    between atoms: _715  and  _716
REMARK  288  A    between atoms: _716  and  _717
REMARK  289  A    between atoms: _720  and  _722
REMARK  290  A    between atoms: _722  and  _723
REMARK  291  A    between atoms: _726  and  _728
REMARK  292  A    between atoms: _728  and  _729
REMARK  293  A    between atoms: _732  and  _734
REMARK  294  A    between atoms: _734  and  _735
REMARK  295  A    between atoms: _734  and  _737
REMARK  296  A    between atoms: _737  and  _738
REMARK  297  A    between atoms: _738  and  _739
REMARK  298  A    between atoms: _739  and  _740
REMARK  299  A    between atoms: _749  and  _751
REMARK  300  A    between atoms: _751  and  _752
REMARK  301  A    between atoms: _751  and  _754
REMARK  302  A    between atoms: _754  and  _755
REMARK  303  A    between atoms: _755  and  _756
REMARK  304  A    between atoms: _759  and  _761
REMARK  305  A    between atoms: _761  and  _762
REMARK  306  A    between atoms: _765  and  _767
REMARK  307  A    between atoms: _767  and  _768
REMARK  308  A    between atoms: _767  and  _770
REMARK  309  A    between atoms: _770  and  _771
REMARK  310  A    between atoms: _771  and  _772
REMARK  311  A    between atoms: _775  and  _777
REMARK  312  A    between atoms: _777  and  _778
REMARK  313  A    between atoms: _777  and  _780
REMARK  314  A    between atoms: _780  and  _781
REMARK  315  A    between atoms: _781  and  _782
REMARK  316  A    between atoms: _787  and  _789
REMARK  317  A    between atoms: _789  and  _790
REMARK  318  A    between atoms: _789  and  _792
REMARK  319  A    between atoms: _792  and  _793
REMARK  320  A    between atoms: _803  and  _805
REMARK  321  A    between atoms: _805  and  _806
REMARK  322  A    between atoms: _805  and  _808
REMARK  323  A    between atoms: _808  and  _809
REMARK  324  A    between atoms: _809  and  _810
REMARK  325  A    between atoms: _810  and  _811
REMARK  326  A    between atoms: _820  and  _822
REMARK  327  A    between atoms: _822  and  _823
REMARK  328  A    between atoms: _826  and  _828
REMARK  329  A    between atoms: _828  and  _829
REMARK  330  A    between atoms: _828  and  _831
REMARK  331  A    between atoms: _831  and  _832
REMARK  332  A    between atoms: _837  and  _838
REMARK  333  A    between atoms: _840  and  _842
REMARK  334  A    between atoms: _842  and  _843
REMARK  335  A    between atoms: _842  and  _845
REMARK  336  A    between atoms: _845  and  _846
REMARK  337  A    between atoms: _849  and  _851
REMARK  338  A    between atoms: _851  and  _852
REMARK  339  A    between atoms: _854  and  _856
REMARK  340  A    between atoms: _856  and  _857
REMARK  341  A    between atoms: _856  and  _859
REMARK  342  A    between atoms: _859  and  _860
REMARK  343  A    between atoms: _863  and  _865
REMARK  344  A    between atoms: _865  and  _866
REMARK  345  A    between atoms: _865  and  _868
REMARK  346  A    between atoms: _868  and  _869
REMARK  347  A    between atoms: _870  and  _872
REMARK  348  A    between atoms: _872  and  _873
REMARK  349  A    between atoms: _872  and  _875
REMARK  350  A    between atoms: _878  and  _880
REMARK  351  A    between atoms: _880  and  _881
REMARK  352  A    between atoms: _880  and  _883
REMARK  353  A    between atoms: _883  and  _884
REMARK  354  A    between atoms: _884  and  _885
REMARK  355  A    between atoms: _888  and  _890
REMARK  356  A    between atoms: _890  and  _891
REMARK  357  A    between atoms: _890  and  _893
REMARK  358  A    between atoms: _893  and  _894
REMARK  359  A    between atoms: _904  and  _906
REMARK  360  A    between atoms: _906  and  _907
REMARK  361  A    between atoms: _906  and  _909
REMARK  362  A    between atoms: _909  and  _910
REMARK  363  A    between atoms: _913  and  _915
REMARK  364  A    between atoms: _915  and  _916
REMARK  365  A    between atoms: _915  and  _918
REMARK  366  A    between atoms: _918  and  _919
REMARK  367  A    between atoms: _919  and  _920
REMARK  368  A    between atoms: _920  and  _921
REMARK  369  A    between atoms: _930  and  _932
REMARK  370  A    between atoms: _932  and  _933
REMARK  371  A    between atoms: _932  and  _935
REMARK  372  A    between atoms: _935  and  _936
REMARK  373  A    between atoms: _941  and  _942
REMARK  374  A    between atoms: _944  and  _946
REMARK  375  A    between atoms: _946  and  _947
REMARK  376  A    between atoms: _946  and  _949
REMARK  377  A    between atoms: _949  and  _950
REMARK                            x       y       z     vdW  Elec       q    Type
REMARK                         _______ _______ _______ _____ _____    ______ ____
ROOT
ATOM      1  O   HOH     1      17.201  18.751  40.840  0.00  0.00    +0.000 OA
ENDROOT
TORSDOF 0
REMARK  Name = ../refined-set-2016/1xr9/1xr9_pocket.pdb
REMARK  377 active torsions:
REMARK  status: ('A' for Active; 'I' for Inactive)
REMARK    1  A    between atoms: _1  and  _3
REMARK    2  A    between atoms: _3  and  _4
REMARK    3  A    between atoms: _3  and  _6
REMARK    4  A    between atoms: _6  and  _7
REMARK    5  A    between atoms: _7  and  _8
REMARK    6  A    between atoms: _10  and  _12
REMARK    7  A    between atoms: _12  and  _13
REMARK    8  A    between atoms: _12  and  _15
REMARK    9  A    between atoms: _15  and  _16
REMARK   10  A    between atoms: _16  and  _17
REMARK   11  A    between atoms: _17  and  _18
REMARK   12  A    between atoms: _27  and  _29
REMARK   13  A    between atoms: _29  and  _30
REMARK   14  A    between atoms: _29  and  _32
REMARK   15  A    between atoms: _32  and  _33
REMARK   16  A    between atoms: _38  and  _39
REMARK   17  A    between atoms: _41  and  _43
REMARK   18  A    between atoms: _43  and  _44
REMARK   19  A    between atoms: _43  and  _46
REMARK   20  A    between atoms: _46  and  _47
REMARK   21  A    between atoms: _53  and  _55
REMARK   22  A    between atoms: _55  and  _56
REMARK   23  A    between atoms: _55  and  _58
REMARK   24  A    between atoms: _58  and  _59
REMARK   25  A    between atoms: _64  and  _65
REMARK   26  A    between atoms: _67  and  _69
REMARK   27  A    between atoms: _69  and  _70
REMARK   28  A    between atoms: _69  and  _72
REMARK   29  A    between atoms: _72  and  _73
REMARK   30  A    between atoms: _79  and  _81
REMARK   31  A    between atoms: _81  and  _82
REMARK   32  A    between atoms: _85  and  _87
REMARK   33  A    between atoms: _87  and  _88
REMARK   34  A    between atoms: _87  and  _90
REMARK   35  A    between atoms: _93  and  _95
REMARK   36  A    between atoms: _95  and  _96
REMARK   37  A    between atoms: _98  and  _100
REMARK   38  A    between atoms: _100  and  _101
REMARK   39  A    between atoms: _100  and  _103
REMARK   40  A    between atoms: _106  and  _108
REMARK   41  A    between atoms: _108  and  _109
REMARK   42  A    between atoms: _108  and  _111
REMARK   43  A    between atoms: _111  and  _112
REMARK   44  A    between atoms: _118  and  _120
REMARK   45  A    between atoms: _120  and  _121
REMARK   46  A    between atoms: _120  and  _123
REMARK   47  A    between atoms: _126  and  _128
REMARK   48  A    between atoms: _128  and  _129
REMARK   49  A    between atoms: _128  and  _131
REMARK   50  A    between atoms: _131  and  _132
REMARK   51  A    between atoms: _138  and  _140
REMARK   52  A    between atoms: _140  and  _141
REMARK   53  A    between atoms: _140  and  _143
REMARK   54  A    between atoms: _143  and  _144
REMARK   55  A    between atoms: _144  and  _145
REMARK   56  A    between atoms: _147  and  _149
REMARK   57  A    between atoms: _149  and  _150
REMARK   58  A    between atoms: _149  and  _152
REMARK   59  A    between atoms: _152  and  _153
REMARK   60  A    between atoms: _156  and  _158
REMARK   61  A    between atoms: _158  and  _159
REMARK   62  A    between atoms: _158  and  _161
REMARK   63  A    between atoms: _161  and  _162
REMARK   64  A    between atoms: _162  and  _163
REMARK   65  A    between atoms: _166  and  _168
REMARK   66  A    between atoms: _168  and  _169
REMARK   67  A    between atoms: _168  and  _171
REMARK   68  A    between atoms: _171  and  _172
REMARK   69  A    between atoms: _172  and  _173
REMARK   70  A    between atoms: _176  and  _178
REMARK   71  A    between atoms: _178  and  _179
REMARK   72  A    between atoms: _178  and  _181
REMARK   73  A    between atoms: _181  and  _182
REMARK   74  A    between atoms: _187  and  _188
REMARK   75  A    between atoms: _190  and  _192
REMARK   76  A    between atoms: _192  and  _193
REMARK   77  A    between atoms: _192  and  _195
REMARK   78  A    between atoms: _195  and  _196
REMARK   79  A    between atoms: _206  and  _208
REMARK   80  A    between atoms: _208  and  _209
REMARK   81  A    between atoms: _208  and  _211
REMARK   82  A    between atoms: _211  and  _212
REMARK   83  A    between atoms: _215  and  _217
REMARK   84  A    between atoms: _217  and  _218
REMARK   85  A    between atoms: _217  and  _220
REMARK   86  A    between atoms: _220  and  _221
REMARK   87  A    between atoms: _221  and  _222
REMARK   88  A    between atoms: _222  and  _223
REMARK   89  A    between atoms: _232  and  _234
REMARK   90  A    between atoms: _234  and  _235
REMARK   91  A    between atoms: _234  and  _237
REMARK   92  A    between atoms: _237  and  _238
REMARK   93  A    between atoms: _238  and  _239
REMARK   94  A    between atoms: _242  and  _244
REMARK   95  A    between atoms: _244  and  _245
REMARK   96  A    between atoms: _244  and  _247
REMARK   97  A    between atoms: _247  and  _248
REMARK   98  A    between atoms: _251  and  _253
REMARK   99  A    between atoms: _253  and  _254
REMARK  100  A    between atoms: _253  and  _256
REMARK  101  A    between atoms: _256  and  _257
REMARK  102  A    between atoms: _257  and  _258
REMARK  103  A    between atoms: _263  and  _265
REMARK  104  A    between atoms: _265  and  _266
REMARK  105  A    between atoms: _265  and  _268
REMARK  106  A    between atoms: _268  and  _269
REMARK  107  A    between atoms: _272  and  _274
REMARK  108  A    between atoms: _274  and  _275
REMARK  109  A    between atoms: _274  and  _277
REMARK  110  A    between atoms: _277  and  _278
REMARK  111  A    between atoms: _280  and  _282
REMARK  112  A    between atoms: _282  and  _283
REMARK  113  A    between atoms: _282  and  _285
REMARK  114  A    between atoms: _285  and  _286
REMARK  115  A    between atoms: _286  and  _287
REMARK  116  A    between atoms: _287  and  _288
REMARK  117  A    between atoms: _288  and  _289
REMARK  118  A    between atoms: _293  and  _295
REMARK  119  A    between atoms: _295  and  _296
REMARK  120  A    between atoms: _295  and  _298
REMARK  121  A    between atoms: _298  and  _299
REMARK  122  A    between atoms: _302  and  _304
REMARK  123  A    between atoms: _304  and  _305
REMARK  124  A    between atoms: _304  and  _307
REMARK  125  A    between atoms: _307  and  _308
REMARK  126  A    between atoms: _313  and  _315
REMARK  127  A    between atoms: _315  and  _316
REMARK  128  A    between atoms: _315  and  _318
REMARK  129  A    between atoms: _318  and  _319
REMARK  130  A    between atoms: _319  and  _320
REMARK  131  A    between atoms: _325  and  _327
REMARK  132  A    between atoms: _327  and  _328
REMARK  133  A    between atoms: _327  and  _330
REMARK  134  A    between atoms: _330  and  _331
REMARK  135  A    between atoms: _334  and  _336
REMARK  136  A    between atoms: _336  and  _337
REMARK  137  A    between atoms: _336  and  _339
REMARK  138  A    between atoms: _339  and  _340
REMARK  139  A    between atoms: _345  and  _346
REMARK  140  A    between atoms: _348  and  _350
REMARK  141  A    between atoms: _350  and  _351
REMARK  142  A    between atoms: _350  and  _353
REMARK  143  A    between atoms: _353  and  _354
REMARK  144  A    between atoms: _354  and  _355
REMARK  145  A    between atoms: _355  and  _356
REMARK  146  A    between atoms: _365  and  _367
REMARK  147  A    between atoms: _367  and  _368
REMARK  148  A    between atoms: _367  and  _370
REMARK  149  A    between atoms: _370  and  _371
REMARK  150  A    between atoms: _371  and  _372
REMARK  151  A    between atoms: _375  and  _377
REMARK  152  A    between atoms: _377  and  _378
REMARK  153  A    between atoms: _377  and  _380
REMARK  154  A    between atoms: _380  and  _381
REMARK  155  A    between atoms: _383  and  _385
REMARK  156  A    between atoms: _385  and  _386
REMARK  157  A    between atoms: _385  and  _388
REMARK  158  A    between atoms: _388  and  _389
REMARK  159  A    between atoms: _392  and  _394
REMARK  160  A    between atoms: _394  and  _395
REMARK  161  A    between atoms: _394  and  _397
REMARK  162  A    between atoms: _397  and  _398
REMARK  163  A    between atoms: _398  and  _399
REMARK  164  A    between atoms: _399  and  _400
REMARK  165  A    between atoms: _409  and  _411
REMARK  166  A    between atoms: _411  and  _412
REMARK  167  A    between atoms: _411  and  _414
REMARK  168  A    between atoms: _414  and  _415
REMARK  169  A    between atoms: _420  and  _422
REMARK  170  A    between atoms: _422  and  _423
REMARK  171  A    between atoms: _422  and  _425
REMARK  172  A    between atoms: _425  and  _426
REMARK  173  A    between atoms: _429  and  _431
REMARK  174  A    between atoms: _431  and  _432
REMARK  175  A    between atoms: _431  and  _434
REMARK  176  A    between atoms: _434  and  _435
REMARK  177  A    between atoms: _440  and  _441
REMARK  178  A    between atoms: _443  and  _445
REMARK  179  A    between atoms: _445  and  _446
REMARK  180  A    between atoms: _445  and  _448
REMARK  181  A    between atoms: _448  and  _449
REMARK  182  A    between atoms: _452  and  _454
REMARK  183  A    between atoms: _454  and  _455
REMARK  184  A    between atoms: _454  and  _457
REMARK  185  A    between atoms: _457  and  _458
REMARK  186  A    between atoms: _458  and  _459
REMARK  187  A    between atoms: _464  and  _466
REMARK  188  A    between atoms: _466  and  _467
REMARK  189  A    between atoms: _466  and  _469
REMARK  190  A    between atoms: _469  and  _470
REMARK  191  A    between atoms: _470  and  _471
REMARK  192  A    between atoms: _471  and  _472
REMARK  193  A    between atoms: _481  and  _483
REMARK  194  A    between atoms: _483  and  _484
REMARK  195  A    between atoms: _483  and  _486
REMARK  196  A    between atoms: _486  and  _487
REMARK  197  A    between atoms: _487  and  _488
REMARK  198  A    between atoms: _490  and  _492
REMARK  199  A    between atoms: _492  and  _493
REMARK  200  A    between atoms: _492  and  _495
REMARK  201  A    between atoms: _495  and  _496
REMARK  202  A    between atoms: _501  and  _502
REMARK  203  A    between atoms: _504  and  _506
REMARK  204  A    between atoms: _506  and  _507
REMARK  205  A    between atoms: _509  and  _511
REMARK  206  A    between atoms: _511  and  _512
REMARK  207  A    between atoms: _511  and  _514
REMARK  208  A    between atoms: _514  and  _515
REMARK  209  A    between atoms: _515  and  _869
REMARK  210  A    between atoms: _516  and  _518
REMARK  211  A    between atoms: _518  and  _519
REMARK  212  A    between atoms: _518  and  _521
REMARK  213  A    between atoms: _521  and  _522
REMARK  214  A    between atoms: _525  and  _527
REMARK  215  A    between atoms: _527  and  _528
REMARK  216  A    between atoms: _527  and  _530
REMARK  217  A    between atoms: _530  and  _531
REMARK  218  A    between atoms: _531  and  _532
REMARK  219  A    between atoms: _537  and  _539
REMARK  220  A    between atoms: _539  and  _540
REMARK  221  A    between atoms: _539  and  _542
REMARK  222  A    between atoms: _542  and  _543
REMARK  223  A    between atoms: _545  and  _547
REMARK  224  A    between atoms: _547  and  _548
REMARK  225  A    between atoms: _551  and  _553
REMARK  226  A    between atoms: _553  and  _554
REMARK  227  A    between atoms: _553  and  _556
REMARK  228  A    between atoms: _556  and  _557
REMARK  229  A    between atoms: _562  and  _563
REMARK  230  A    between atoms: _565  and  _567
REMARK  231  A    between atoms: _567  and  _568
REMARK  232  A    between atoms: _567  and  _570
REMARK  233  A    between atoms: _570  and  _571
REMARK  234  A    between atoms: _576  and  _577
REMARK  235  A    between atoms: _579  and  _581
REMARK  236  A    between atoms: _581  and  _582
REMARK  237  A    between atoms: _581  and  _584
REMARK  238  A    between atoms: _584  and  _585
REMARK  239  A    between atoms: _588  and  _590
REMARK  240  A    between atoms: _590  and  _591
REMARK  241  A    between atoms: _594  and  _596
REMARK  242  A    between atoms: _596  and  _597
REMARK  243  A    between atoms: _596  and  _599
REMARK  244  A    between atoms: _599  and  _600
REMARK  245  A    between atoms: _610  and  _612
REMARK  246  A    between atoms: _612  and  _613
REMARK  247  A    between atoms: _616  and  _618
REMARK  248  A    between atoms: _618  and  _619
REMARK  249  A    between atoms: _622  and  _624
REMARK  250  A    between atoms: _624  and  _625
REMARK  251  A    between atoms: _624  and  _627
REMARK  252  A    between atoms: _627  and  _628
REMARK  253  A    between atoms: _628  and  _629
REMARK  254  A    between atoms: _634  and  _636
REMARK  255  A    between atoms: _636  and  _637
REMARK  256  A    between atoms: _636  and  _639
REMARK  257  A    between atoms: _639  and  _640
REMARK  258  A    between atoms: _643  and  _645
REMARK  259  A    between atoms: _645  and  _646
REMARK  260  A    between atoms: _645  and  _648
REMARK  261  A    between atoms: _648  and  _649
REMARK  262  A    between atoms: _652  and  _654
REMARK  263  A    between atoms: _654  and  _655
REMARK  264  A    between atoms: _654  and  _657
REMARK  265  A    between atoms: _657  and  _658
REMARK  266  A    between atoms: _658  and  _659
REMARK  267  A    between atoms: _664  and  _666
REMARK  268  A    between atoms: _666  and  _667
REMARK  269  A    between atoms: _666  and  _669
REMARK  270  A    between atoms: _669  and  _670
REMARK  271  A    between atoms: _670  and  _671
REMARK  272  A    between atoms: _671  and  _672
REMARK  273  A    between atoms: _681  and  _683
REMARK  274  A    between atoms: _683  and  _684
REMARK  275  A    between atoms: _683  and  _686
REMARK  276  A    between atoms: _686  and  _687
REMARK  277  A    between atoms: _687  and  _688
REMARK  278  A    between atoms: _688  and  _689
REMARK  279  A    between atoms: _689  and  _690
REMARK  280  A    between atoms: _694  and  _696
REMARK  281  A    between atoms: _696  and  _697
REMARK  282  A    between atoms: _696  and  _699
REMARK  283  A    between atoms: _699  and  _700
REMARK  284  A    between atoms: _710  and  _712
REMARK  285  A    between atoms: _712  and  _713
REMARK  286  A    between atoms: _712  and  _715
REMARK  287  A    between atoms: _715  and  _716
REMARK  288  A    between atoms: _716  and  _717
REMARK  289  A    between atoms: _720  and  _722
REMARK  290  A    between atoms: _722  and  _723
REMARK  291  A    between atoms: _726  and  _728
REMARK  292  A    between atoms: _728  and  _729
REMARK  293  A    between atoms: _732  and  _734
REMARK  294  A    between atoms: _734  and  _735
REMARK  295  A    between atoms: _734  and  _737
REMARK  296  A    between atoms: _737  and  _738
REMARK  297  A    between atoms: _738  and  _739
REMARK  298  A    between atoms: _739  and  _740
REMARK  299  A    between atoms: _749  and  _751
REMARK  300  A    between atoms: _751  and  _752
REMARK  301  A    between atoms: _751  and  _754
REMARK  302  A    between atoms: _754  and  _755
REMARK  303  A    between atoms: _755  and  _756
REMARK  304  A    between atoms: _759  and  _761
REMARK  305  A    between atoms: _761  and  _762
REMARK  306  A    between atoms: _765  and  _767
REMARK  307  A    between atoms: _767  and  _768
REMARK  308  A    between atoms: _767  and  _770
REMARK  309  A    between atoms: _770  and  _771
REMARK  310  A    between atoms: _771  and  _772
REMARK  311  A    between atoms: _775  and  _777
REMARK  312  A    between atoms: _777  and  _778
REMARK  313  A    between atoms: _777  and  _780
REMARK  314  A    between atoms: _780  and  _781
REMARK  315  A    between atoms: _781  and  _782
REMARK  316  A    between atoms: _787  and  _789
REMARK  317  A    between atoms: _789  and  _790
REMARK  318  A    between atoms: _789  and  _792
REMARK  319  A    between atoms: _792  and  _793
REMARK  320  A    between atoms: _803  and  _805
REMARK  321  A    between atoms: _805  and  _806
REMARK  322  A    between atoms: _805  and  _808
REMARK  323  A    between atoms: _808  and  _809
REMARK  324  A    between atoms: _809  and  _810
REMARK  325  A    between atoms: _810  and  _811
REMARK  326  A    between atoms: _820  and  _822
REMARK  327  A    between atoms: _822  and  _823
REMARK  328  A    between atoms: _826  and  _828
REMARK  329  A    between atoms: _828  and  _829
REMARK  330  A    between atoms: _828  and  _831
REMARK  331  A    between atoms: _831  and  _832
REMARK  332  A    between atoms: _837  and  _838
REMARK  333  A    between atoms: _840  and  _842
REMARK  334  A    between atoms: _842  and  _843
REMARK  335  A    between atoms: _842  and  _845
REMARK  336  A    between atoms: _845  and  _846
REMARK  337  A    between atoms: _849  and  _851
REMARK  338  A    between atoms: _851  and  _852
REMARK  339  A    between atoms: _854  and  _856
REMARK  340  A    between atoms: _856  and  _857
REMARK  341  A    between atoms: _856  and  _859
REMARK  342  A    between atoms: _859  and  _860
REMARK  343  A    between atoms: _863  and  _865
REMARK  344  A    between atoms: _865  and  _866
REMARK  345  A    between atoms: _865  and  _868
REMARK  346  A    between atoms: _868  and  _869
REMARK  347  A    between atoms: _870  and  _872
REMARK  348  A    between atoms: _872  and  _873
REMARK  349  A    between atoms: _872  and  _875
REMARK  350  A    between atoms: _878  and  _880
REMARK  351  A    between atoms: _880  and  _881
REMARK  352  A    between atoms: _880  and  _883
REMARK  353  A    between atoms: _883  and  _884
REMARK  354  A    between atoms: _884  and  _885
REMARK  355  A    between atoms: _888  and  _890
REMARK  356  A    between atoms: _890  and  _891
REMARK  357  A    between atoms: _890  and  _893
REMARK  358  A    between atoms: _893  and  _894
REMARK  359  A    between atoms: _904  and  _906
REMARK  360  A    between atoms: _906  and  _907
REMARK  361  A    between atoms: _906  and  _909
REMARK  362  A    between atoms: _909  and  _910
REMARK  363  A    between atoms: _913  and  _915
REMARK  364  A    between atoms: _915  and  _916
REMARK  365  A    between atoms: _915  and  _918
REMARK  366  A    between atoms: _918  and  _919
REMARK  367  A    between atoms: _919  and  _920
REMARK  368  A    between atoms: _920  and  _921
REMARK  369  A    between atoms: _930  and  _932
REMARK  370  A    between atoms: _932  and  _933
REMARK  371  A    between atoms: _932  and  _935
REMARK  372  A    between atoms: _935  and  _936
REMARK  373  A    between atoms: _941  and  _942
REMARK  374  A    between atoms: _944  and  _946
REMARK  375  A    between atoms: _946  and  _947
REMARK  376  A    between atoms: _946  and  _949
REMARK  377  A    between atoms: _949  and  _950
REMARK                            x       y       z     vdW  Elec       q    Type
REMARK                         _______ _______ _______ _____ _____    ______ ____
ROOT
ATOM      1  O   HOH     1      26.408  25.735  34.577  0.00  0.00    +0.000 OA
ENDROOT
TORSDOF 0
REMARK  Name = ../refined-set-2016/1xr9/1xr9_pocket.pdb
REMARK  377 active torsions:
REMARK  status: ('A' for Active; 'I' for Inactive)
REMARK    1  A    between atoms: _1  and  _3
REMARK    2  A    between atoms: _3  and  _4
REMARK    3  A    between atoms: _3  and  _6
REMARK    4  A    between atoms: _6  and  _7
REMARK    5  A    between atoms: _7  and  _8
REMARK    6  A    between atoms: _10  and  _12
REMARK    7  A    between atoms: _12  and  _13
REMARK    8  A    between atoms: _12  and  _15
REMARK    9  A    between atoms: _15  and  _16
REMARK   10  A    between atoms: _16  and  _17
REMARK   11  A    between atoms: _17  and  _18
REMARK   12  A    between atoms: _27  and  _29
REMARK   13  A    between atoms: _29  and  _30
REMARK   14  A    between atoms: _29  and  _32
REMARK   15  A    between atoms: _32  and  _33
REMARK   16  A    between atoms: _38  and  _39
REMARK   17  A    between atoms: _41  and  _43
REMARK   18  A    between atoms: _43  and  _44
REMARK   19  A    between atoms: _43  and  _46
REMARK   20  A    between atoms: _46  and  _47
REMARK   21  A    between atoms: _53  and  _55
REMARK   22  A    between atoms: _55  and  _56
REMARK   23  A    between atoms: _55  and  _58
REMARK   24  A    between atoms: _58  and  _59
REMARK   25  A    between atoms: _64  and  _65
REMARK   26  A    between atoms: _67  and  _69
REMARK   27  A    between atoms: _69  and  _70
REMARK   28  A    between atoms: _69  and  _72
REMARK   29  A    between atoms: _72  and  _73
REMARK   30  A    between atoms: _79  and  _81
REMARK   31  A    between atoms: _81  and  _82
REMARK   32  A    between atoms: _85  and  _87
REMARK   33  A    between atoms: _87  and  _88
REMARK   34  A    between atoms: _87  and  _90
REMARK   35  A    between atoms: _93  and  _95
REMARK   36  A    between atoms: _95  and  _96
REMARK   37  A    between atoms: _98  and  _100
REMARK   38  A    between atoms: _100  and  _101
REMARK   39  A    between atoms: _100  and  _103
REMARK   40  A    between atoms: _106  and  _108
REMARK   41  A    between atoms: _108  and  _109
REMARK   42  A    between atoms: _108  and  _111
REMARK   43  A    between atoms: _111  and  _112
REMARK   44  A    between atoms: _118  and  _120
REMARK   45  A    between atoms: _120  and  _121
REMARK   46  A    between atoms: _120  and  _123
REMARK   47  A    between atoms: _126  and  _128
REMARK   48  A    between atoms: _128  and  _129
REMARK   49  A    between atoms: _128  and  _131
REMARK   50  A    between atoms: _131  and  _132
REMARK   51  A    between atoms: _138  and  _140
REMARK   52  A    between atoms: _140  and  _141
REMARK   53  A    between atoms: _140  and  _143
REMARK   54  A    between atoms: _143  and  _144
REMARK   55  A    between atoms: _144  and  _145
REMARK   56  A    between atoms: _147  and  _149
REMARK   57  A    between atoms: _149  and  _150
REMARK   58  A    between atoms: _149  and  _152
REMARK   59  A    between atoms: _152  and  _153
REMARK   60  A    between atoms: _156  and  _158
REMARK   61  A    between atoms: _158  and  _159
REMARK   62  A    between atoms: _158  and  _161
REMARK   63  A    between atoms: _161  and  _162
REMARK   64  A    between atoms: _162  and  _163
REMARK   65  A    between atoms: _166  and  _168
REMARK   66  A    between atoms: _168  and  _169
REMARK   67  A    between atoms: _168  and  _171
REMARK   68  A    between atoms: _171  and  _172
REMARK   69  A    between atoms: _172  and  _173
REMARK   70  A    between atoms: _176  and  _178
REMARK   71  A    between atoms: _178  and  _179
REMARK   72  A    between atoms: _178  and  _181
REMARK   73  A    between atoms: _181  and  _182
REMARK   74  A    between atoms: _187  and  _188
REMARK   75  A    between atoms: _190  and  _192
REMARK   76  A    between atoms: _192  and  _193
REMARK   77  A    between atoms: _192  and  _195
REMARK   78  A    between atoms: _195  and  _196
REMARK   79  A    between atoms: _206  and  _208
REMARK   80  A    between atoms: _208  and  _209
REMARK   81  A    between atoms: _208  and  _211
REMARK   82  A    between atoms: _211  and  _212
REMARK   83  A    between atoms: _215  and  _217
REMARK   84  A    between atoms: _217  and  _218
REMARK   85  A    between atoms: _217  and  _220
REMARK   86  A    between atoms: _220  and  _221
REMARK   87  A    between atoms: _221  and  _222
REMARK   88  A    between atoms: _222  and  _223
REMARK   89  A    between atoms: _232  and  _234
REMARK   90  A    between atoms: _234  and  _235
REMARK   91  A    between atoms: _234  and  _237
REMARK   92  A    between atoms: _237  and  _238
REMARK   93  A    between atoms: _238  and  _239
REMARK   94  A    between atoms: _242  and  _244
REMARK   95  A    between atoms: _244  and  _245
REMARK   96  A    between atoms: _244  and  _247
REMARK   97  A    between atoms: _247  and  _248
REMARK   98  A    between atoms: _251  and  _253
REMARK   99  A    between atoms: _253  and  _254
REMARK  100  A    between atoms: _253  and  _256
REMARK  101  A    between atoms: _256  and  _257
REMARK  102  A    between atoms: _257  and  _258
REMARK  103  A    between atoms: _263  and  _265
REMARK  104  A    between atoms: _265  and  _266
REMARK  105  A    between atoms: _265  and  _268
REMARK  106  A    between atoms: _268  and  _269
REMARK  107  A    between atoms: _272  and  _274
REMARK  108  A    between atoms: _274  and  _275
REMARK  109  A    between atoms: _274  and  _277
REMARK  110  A    between atoms: _277  and  _278
REMARK  111  A    between atoms: _280  and  _282
REMARK  112  A    between atoms: _282  and  _283
REMARK  113  A    between atoms: _282  and  _285
REMARK  114  A    between atoms: _285  and  _286
REMARK  115  A    between atoms: _286  and  _287
REMARK  116  A    between atoms: _287  and  _288
REMARK  117  A    between atoms: _288  and  _289
REMARK  118  A    between atoms: _293  and  _295
REMARK  119  A    between atoms: _295  and  _296
REMARK  120  A    between atoms: _295  and  _298
REMARK  121  A    between atoms: _298  and  _299
REMARK  122  A    between atoms: _302  and  _304
REMARK  123  A    between atoms: _304  and  _305
REMARK  124  A    between atoms: _304  and  _307
REMARK  125  A    between atoms: _307  and  _308
REMARK  126  A    between atoms: _313  and  _315
REMARK  127  A    between atoms: _315  and  _316
REMARK  128  A    between atoms: _315  and  _318
REMARK  129  A    between atoms: _318  and  _319
REMARK  130  A    between atoms: _319  and  _320
REMARK  131  A    between atoms: _325  and  _327
REMARK  132  A    between atoms: _327  and  _328
REMARK  133  A    between atoms: _327  and  _330
REMARK  134  A    between atoms: _330  and  _331
REMARK  135  A    between atoms: _334  and  _336
REMARK  136  A    between atoms: _336  and  _337
REMARK  137  A    between atoms: _336  and  _339
REMARK  138  A    between atoms: _339  and  _340
REMARK  139  A    between atoms: _345  and  _346
REMARK  140  A    between atoms: _348  and  _350
REMARK  141  A    between atoms: _350  and  _351
REMARK  142  A    between atoms: _350  and  _353
REMARK  143  A    between atoms: _353  and  _354
REMARK  144  A    between atoms: _354  and  _355
REMARK  145  A    between atoms: _355  and  _356
REMARK  146  A    between atoms: _365  and  _367
REMARK  147  A    between atoms: _367  and  _368
REMARK  148  A    between atoms: _367  and  _370
REMARK  149  A    between atoms: _370  and  _371
REMARK  150  A    between atoms: _371  and  _372
REMARK  151  A    between atoms: _375  and  _377
REMARK  152  A    between atoms: _377  and  _378
REMARK  153  A    between atoms: _377  and  _380
REMARK  154  A    between atoms: _380  and  _381
REMARK  155  A    between atoms: _383  and  _385
REMARK  156  A    between atoms: _385  and  _386
REMARK  157  A    between atoms: _385  and  _388
REMARK  158  A    between atoms: _388  and  _389
REMARK  159  A    between atoms: _392  and  _394
REMARK  160  A    between atoms: _394  and  _395
REMARK  161  A    between atoms: _394  and  _397
REMARK  162  A    between atoms: _397  and  _398
REMARK  163  A    between atoms: _398  and  _399
REMARK  164  A    between atoms: _399  and  _400
REMARK  165  A    between atoms: _409  and  _411
REMARK  166  A    between atoms: _411  and  _412
REMARK  167  A    between atoms: _411  and  _414
REMARK  168  A    between atoms: _414  and  _415
REMARK  169  A    between atoms: _420  and  _422
REMARK  170  A    between atoms: _422  and  _423
REMARK  171  A    between atoms: _422  and  _425
REMARK  172  A    between atoms: _425  and  _426
REMARK  173  A    between atoms: _429  and  _431
REMARK  174  A    between atoms: _431  and  _432
REMARK  175  A    between atoms: _431  and  _434
REMARK  176  A    between atoms: _434  and  _435
REMARK  177  A    between atoms: _440  and  _441
REMARK  178  A    between atoms: _443  and  _445
REMARK  179  A    between atoms: _445  and  _446
REMARK  180  A    between atoms: _445  and  _448
REMARK  181  A    between atoms: _448  and  _449
REMARK  182  A    between atoms: _452  and  _454
REMARK  183  A    between atoms: _454  and  _455
REMARK  184  A    between atoms: _454  and  _457
REMARK  185  A    between atoms: _457  and  _458
REMARK  186  A    between atoms: _458  and  _459
REMARK  187  A    between atoms: _464  and  _466
REMARK  188  A    between atoms: _466  and  _467
REMARK  189  A    between atoms: _466  and  _469
REMARK  190  A    between atoms: _469  and  _470
REMARK  191  A    between atoms: _470  and  _471
REMARK  192  A    between atoms: _471  and  _472
REMARK  193  A    between atoms: _481  and  _483
REMARK  194  A    between atoms: _483  and  _484
REMARK  195  A    between atoms: _483  and  _486
REMARK  196  A    between atoms: _486  and  _487
REMARK  197  A    between atoms: _487  and  _488
REMARK  198  A    between atoms: _490  and  _492
REMARK  199  A    between atoms: _492  and  _493
REMARK  200  A    between atoms: _492  and  _495
REMARK  201  A    between atoms: _495  and  _496
REMARK  202  A    between atoms: _501  and  _502
REMARK  203  A    between atoms: _504  and  _506
REMARK  204  A    between atoms: _506  and  _507
REMARK  205  A    between atoms: _509  and  _511
REMARK  206  A    between atoms: _511  and  _512
REMARK  207  A    between atoms: _511  and  _514
REMARK  208  A    between atoms: _514  and  _515
REMARK  209  A    between atoms: _515  and  _869
REMARK  210  A    between atoms: _516  and  _518
REMARK  211  A    between atoms: _518  and  _519
REMARK  212  A    between atoms: _518  and  _521
REMARK  213  A    between atoms: _521  and  _522
REMARK  214  A    between atoms: _525  and  _527
REMARK  215  A    between atoms: _527  and  _528
REMARK  216  A    between atoms: _527  and  _530
REMARK  217  A    between atoms: _530  and  _531
REMARK  218  A    between atoms: _531  and  _532
REMARK  219  A    between atoms: _537  and  _539
REMARK  220  A    between atoms: _539  and  _540
REMARK  221  A    between atoms: _539  and  _542
REMARK  222  A    between atoms: _542  and  _543
REMARK  223  A    between atoms: _545  and  _547
REMARK  224  A    between atoms: _547  and  _548
REMARK  225  A    between atoms: _551  and  _553
REMARK  226  A    between atoms: _553  and  _554
REMARK  227  A    between atoms: _553  and  _556
REMARK  228  A    between atoms: _556  and  _557
REMARK  229  A    between atoms: _562  and  _563
REMARK  230  A    between atoms: _565  and  _567
REMARK  231  A    between atoms: _567  and  _568
REMARK  232  A    between atoms: _567  and  _570
REMARK  233  A    between atoms: _570  and  _571
REMARK  234  A    between atoms: _576  and  _577
REMARK  235  A    between atoms: _579  and  _581
REMARK  236  A    between atoms: _581  and  _582
REMARK  237  A    between atoms: _581  and  _584
REMARK  238  A    between atoms: _584  and  _585
REMARK  239  A    between atoms: _588  and  _590
REMARK  240  A    between atoms: _590  and  _591
REMARK  241  A    between atoms: _594  and  _596
REMARK  242  A    between atoms: _596  and  _597
REMARK  243  A    between atoms: _596  and  _599
REMARK  244  A    between atoms: _599  and  _600
REMARK  245  A    between atoms: _610  and  _612
REMARK  246  A    between atoms: _612  and  _613
REMARK  247  A    between atoms: _616  and  _618
REMARK  248  A    between atoms: _618  and  _619
REMARK  249  A    between atoms: _622  and  _624
REMARK  250  A    between atoms: _624  and  _625
REMARK  251  A    between atoms: _624  and  _627
REMARK  252  A    between atoms: _627  and  _628
REMARK  253  A    between atoms: _628  and  _629
REMARK  254  A    between atoms: _634  and  _636
REMARK  255  A    between atoms: _636  and  _637
REMARK  256  A    between atoms: _636  and  _639
REMARK  257  A    between atoms: _639  and  _640
REMARK  258  A    between atoms: _643  and  _645
REMARK  259  A    between atoms: _645  and  _646
REMARK  260  A    between atoms: _645  and  _648
REMARK  261  A    between atoms: _648  and  _649
REMARK  262  A    between atoms: _652  and  _654
REMARK  263  A    between atoms: _654  and  _655
REMARK  264  A    between atoms: _654  and  _657
REMARK  265  A    between atoms: _657  and  _658
REMARK  266  A    between atoms: _658  and  _659
REMARK  267  A    between atoms: _664  and  _666
REMARK  268  A    between atoms: _666  and  _667
REMARK  269  A    between atoms: _666  and  _669
REMARK  270  A    between atoms: _669  and  _670
REMARK  271  A    between atoms: _670  and  _671
REMARK  272  A    between atoms: _671  and  _672
REMARK  273  A    between atoms: _681  and  _683
REMARK  274  A    between atoms: _683  and  _684
REMARK  275  A    between atoms: _683  and  _686
REMARK  276  A    between atoms: _686  and  _687
REMARK  277  A    between atoms: _687  and  _688
REMARK  278  A    between atoms: _688  and  _689
REMARK  279  A    between atoms: _689  and  _690
REMARK  280  A    between atoms: _694  and  _696
REMARK  281  A    between atoms: _696  and  _697
REMARK  282  A    between atoms: _696  and  _699
REMARK  283  A    between atoms: _699  and  _700
REMARK  284  A    between atoms: _710  and  _712
REMARK  285  A    between atoms: _712  and  _713
REMARK  286  A    between atoms: _712  and  _715
REMARK  287  A    between atoms: _715  and  _716
REMARK  288  A    between atoms: _716  and  _717
REMARK  289  A    between atoms: _720  and  _722
REMARK  290  A    between atoms: _722  and  _723
REMARK  291  A    between atoms: _726  and  _728
REMARK  292  A    between atoms: _728  and  _729
REMARK  293  A    between atoms: _732  and  _734
REMARK  294  A    between atoms: _734  and  _735
REMARK  295  A    between atoms: _734  and  _737
REMARK  296  A    between atoms: _737  and  _738
REMARK  297  A    between atoms: _738  and  _739
REMARK  298  A    between atoms: _739  and  _740
REMARK  299  A    between atoms: _749  and  _751
REMARK  300  A    between atoms: _751  and  _752
REMARK  301  A    between atoms: _751  and  _754
REMARK  302  A    between atoms: _754  and  _755
REMARK  303  A    between atoms: _755  and  _756
REMARK  304  A    between atoms: _759  and  _761
REMARK  305  A    between atoms: _761  and  _762
REMARK  306  A    between atoms: _765  and  _767
REMARK  307  A    between atoms: _767  and  _768
REMARK  308  A    between atoms: _767  and  _770
REMARK  309  A    between atoms: _770  and  _771
REMARK  310  A    between atoms: _771  and  _772
REMARK  311  A    between atoms: _775  and  _777
REMARK  312  A    between atoms: _777  and  _778
REMARK  313  A    between atoms: _777  and  _780
REMARK  314  A    between atoms: _780  and  _781
REMARK  315  A    between atoms: _781  and  _782
REMARK  316  A    between atoms: _787  and  _789
REMARK  317  A    between atoms: _789  and  _790
REMARK  318  A    between atoms: _789  and  _792
REMARK  319  A    between atoms: _792  and  _793
REMARK  320  A    between atoms: _803  and  _805
REMARK  321  A    between atoms: _805  and  _806
REMARK  322  A    between atoms: _805  and  _808
REMARK  323  A    between atoms: _808  and  _809
REMARK  324  A    between atoms: _809  and  _810
REMARK  325  A    between atoms: _810  and  _811
REMARK  326  A    between atoms: _820  and  _822
REMARK  327  A    between atoms: _822  and  _823
REMARK  328  A    between atoms: _826  and  _828
REMARK  329  A    between atoms: _828  and  _829
REMARK  330  A    between atoms: _828  and  _831
REMARK  331  A    between atoms: _831  and  _832
REMARK  332  A    between atoms: _837  and  _838
REMARK  333  A    between atoms: _840  and  _842
REMARK  334  A    between atoms: _842  and  _843
REMARK  335  A    between atoms: _842  and  _845
REMARK  336  A    between atoms: _845  and  _846
REMARK  337  A    between atoms: _849  and  _851
REMARK  338  A    between atoms: _851  and  _852
REMARK  339  A    between atoms: _854  and  _856
REMARK  340  A    between atoms: _856  and  _857
REMARK  341  A    between atoms: _856  and  _859
REMARK  342  A    between atoms: _859  and  _860
REMARK  343  A    between atoms: _863  and  _865
REMARK  344  A    between atoms: _865  and  _866
REMARK  345  A    between atoms: _865  and  _868
REMARK  346  A    between atoms: _868  and  _869
REMARK  347  A    between atoms: _870  and  _872
REMARK  348  A    between atoms: _872  and  _873
REMARK  349  A    between atoms: _872  and  _875
REMARK  350  A    between atoms: _878  and  _880
REMARK  351  A    between atoms: _880  and  _881
REMARK  352  A    between atoms: _880  and  _883
REMARK  353  A    between atoms: _883  and  _884
REMARK  354  A    between atoms: _884  and  _885
REMARK  355  A    between atoms: _888  and  _890
REMARK  356  A    between atoms: _890  and  _891
REMARK  357  A    between atoms: _890  and  _893
REMARK  358  A    between atoms: _893  and  _894
REMARK  359  A    between atoms: _904  and  _906
REMARK  360  A    between atoms: _906  and  _907
REMARK  361  A    between atoms: _906  and  _909
REMARK  362  A    between atoms: _909  and  _910
REMARK  363  A    between atoms: _913  and  _915
REMARK  364  A    between atoms: _915  and  _916
REMARK  365  A    between atoms: _915  and  _918
REMARK  366  A    between atoms: _918  and  _919
REMARK  367  A    between atoms: _919  and  _920
REMARK  368  A    between atoms: _920  and  _921
REMARK  369  A    between atoms: _930  and  _932
REMARK  370  A    between atoms: _932  and  _933
REMARK  371  A    between atoms: _932  and  _935
REMARK  372  A    between atoms: _935  and  _936
REMARK  373  A    between atoms: _941  and  _942
REMARK  374  A    between atoms: _944  and  _946
REMARK  375  A    between atoms: _946  and  _947
REMARK  376  A    between atoms: _946  and  _949
REMARK  377  A    between atoms: _949  and  _950
REMARK                            x       y       z     vdW  Elec       q    Type
REMARK                         _______ _______ _______ _____ _____    ______ ____
ROOT
ATOM      1  O   HOH     1      11.112  28.501  45.030  0.00  0.00    +0.000 OA
ENDROOT
TORSDOF 0
REMARK  Name = ../refined-set-2016/1xr9/1xr9_pocket.pdb
REMARK  377 active torsions:
REMARK  status: ('A' for Active; 'I' for Inactive)
REMARK    1  A    between atoms: _1  and  _3
REMARK    2  A    between atoms: _3  and  _4
REMARK    3  A    between atoms: _3  and  _6
REMARK    4  A    between atoms: _6  and  _7
REMARK    5  A    between atoms: _7  and  _8
REMARK    6  A    between atoms: _10  and  _12
REMARK    7  A    between atoms: _12  and  _13
REMARK    8  A    between atoms: _12  and  _15
REMARK    9  A    between atoms: _15  and  _16
REMARK   10  A    between atoms: _16  and  _17
REMARK   11  A    between atoms: _17  and  _18
REMARK   12  A    between atoms: _27  and  _29
REMARK   13  A    between atoms: _29  and  _30
REMARK   14  A    between atoms: _29  and  _32
REMARK   15  A    between atoms: _32  and  _33
REMARK   16  A    between atoms: _38  and  _39
REMARK   17  A    between atoms: _41  and  _43
REMARK   18  A    between atoms: _43  and  _44
REMARK   19  A    between atoms: _43  and  _46
REMARK   20  A    between atoms: _46  and  _47
REMARK   21  A    between atoms: _53  and  _55
REMARK   22  A    between atoms: _55  and  _56
REMARK   23  A    between atoms: _55  and  _58
REMARK   24  A    between atoms: _58  and  _59
REMARK   25  A    between atoms: _64  and  _65
REMARK   26  A    between atoms: _67  and  _69
REMARK   27  A    between atoms: _69  and  _70
REMARK   28  A    between atoms: _69  and  _72
REMARK   29  A    between atoms: _72  and  _73
REMARK   30  A    between atoms: _79  and  _81
REMARK   31  A    between atoms: _81  and  _82
REMARK   32  A    between atoms: _85  and  _87
REMARK   33  A    between atoms: _87  and  _88
REMARK   34  A    between atoms: _87  and  _90
REMARK   35  A    between atoms: _93  and  _95
REMARK   36  A    between atoms: _95  and  _96
REMARK   37  A    between atoms: _98  and  _100
REMARK   38  A    between atoms: _100  and  _101
REMARK   39  A    between atoms: _100  and  _103
REMARK   40  A    between atoms: _106  and  _108
REMARK   41  A    between atoms: _108  and  _109
REMARK   42  A    between atoms: _108  and  _111
REMARK   43  A    between atoms: _111  and  _112
REMARK   44  A    between atoms: _118  and  _120
REMARK   45  A    between atoms: _120  and  _121
REMARK   46  A    between atoms: _120  and  _123
REMARK   47  A    between atoms: _126  and  _128
REMARK   48  A    between atoms: _128  and  _129
REMARK   49  A    between atoms: _128  and  _131
REMARK   50  A    between atoms: _131  and  _132
REMARK   51  A    between atoms: _138  and  _140
REMARK   52  A    between atoms: _140  and  _141
REMARK   53  A    between atoms: _140  and  _143
REMARK   54  A    between atoms: _143  and  _144
REMARK   55  A    between atoms: _144  and  _145
REMARK   56  A    between atoms: _147  and  _149
REMARK   57  A    between atoms: _149  and  _150
REMARK   58  A    between atoms: _149  and  _152
REMARK   59  A    between atoms: _152  and  _153
REMARK   60  A    between atoms: _156  and  _158
REMARK   61  A    between atoms: _158  and  _159
REMARK   62  A    between atoms: _158  and  _161
REMARK   63  A    between atoms: _161  and  _162
REMARK   64  A    between atoms: _162  and  _163
REMARK   65  A    between atoms: _166  and  _168
REMARK   66  A    between atoms: _168  and  _169
REMARK   67  A    between atoms: _168  and  _171
REMARK   68  A    between atoms: _171  and  _172
REMARK   69  A    between atoms: _172  and  _173
REMARK   70  A    between atoms: _176  and  _178
REMARK   71  A    between atoms: _178  and  _179
REMARK   72  A    between atoms: _178  and  _181
REMARK   73  A    between atoms: _181  and  _182
REMARK   74  A    between atoms: _187  and  _188
REMARK   75  A    between atoms: _190  and  _192
REMARK   76  A    between atoms: _192  and  _193
REMARK   77  A    between atoms: _192  and  _195
REMARK   78  A    between atoms: _195  and  _196
REMARK   79  A    between atoms: _206  and  _208
REMARK   80  A    between atoms: _208  and  _209
REMARK   81  A    between atoms: _208  and  _211
REMARK   82  A    between atoms: _211  and  _212
REMARK   83  A    between atoms: _215  and  _217
REMARK   84  A    between atoms: _217  and  _218
REMARK   85  A    between atoms: _217  and  _220
REMARK   86  A    between atoms: _220  and  _221
REMARK   87  A    between atoms: _221  and  _222
REMARK   88  A    between atoms: _222  and  _223
REMARK   89  A    between atoms: _232  and  _234
REMARK   90  A    between atoms: _234  and  _235
REMARK   91  A    between atoms: _234  and  _237
REMARK   92  A    between atoms: _237  and  _238
REMARK   93  A    between atoms: _238  and  _239
REMARK   94  A    between atoms: _242  and  _244
REMARK   95  A    between atoms: _244  and  _245
REMARK   96  A    between atoms: _244  and  _247
REMARK   97  A    between atoms: _247  and  _248
REMARK   98  A    between atoms: _251  and  _253
REMARK   99  A    between atoms: _253  and  _254
REMARK  100  A    between atoms: _253  and  _256
REMARK  101  A    between atoms: _256  and  _257
REMARK  102  A    between atoms: _257  and  _258
REMARK  103  A    between atoms: _263  and  _265
REMARK  104  A    between atoms: _265  and  _266
REMARK  105  A    between atoms: _265  and  _268
REMARK  106  A    between atoms: _268  and  _269
REMARK  107  A    between atoms: _272  and  _274
REMARK  108  A    between atoms: _274  and  _275
REMARK  109  A    between atoms: _274  and  _277
REMARK  110  A    between atoms: _277  and  _278
REMARK  111  A    between atoms: _280  and  _282
REMARK  112  A    between atoms: _282  and  _283
REMARK  113  A    between atoms: _282  and  _285
REMARK  114  A    between atoms: _285  and  _286
REMARK  115  A    between atoms: _286  and  _287
REMARK  116  A    between atoms: _287  and  _288
REMARK  117  A    between atoms: _288  and  _289
REMARK  118  A    between atoms: _293  and  _295
REMARK  119  A    between atoms: _295  and  _296
REMARK  120  A    between atoms: _295  and  _298
REMARK  121  A    between atoms: _298  and  _299
REMARK  122  A    between atoms: _302  and  _304
REMARK  123  A    between atoms: _304  and  _305
REMARK  124  A    between atoms: _304  and  _307
REMARK  125  A    between atoms: _307  and  _308
REMARK  126  A    between atoms: _313  and  _315
REMARK  127  A    between atoms: _315  and  _316
REMARK  128  A    between atoms: _315  and  _318
REMARK  129  A    between atoms: _318  and  _319
REMARK  130  A    between atoms: _319  and  _320
REMARK  131  A    between atoms: _325  and  _327
REMARK  132  A    between atoms: _327  and  _328
REMARK  133  A    between atoms: _327  and  _330
REMARK  134  A    between atoms: _330  and  _331
REMARK  135  A    between atoms: _334  and  _336
REMARK  136  A    between atoms: _336  and  _337
REMARK  137  A    between atoms: _336  and  _339
REMARK  138  A    between atoms: _339  and  _340
REMARK  139  A    between atoms: _345  and  _346
REMARK  140  A    between atoms: _348  and  _350
REMARK  141  A    between atoms: _350  and  _351
REMARK  142  A    between atoms: _350  and  _353
REMARK  143  A    between atoms: _353  and  _354
REMARK  144  A    between atoms: _354  and  _355
REMARK  145  A    between atoms: _355  and  _356
REMARK  146  A    between atoms: _365  and  _367
REMARK  147  A    between atoms: _367  and  _368
REMARK  148  A    between atoms: _367  and  _370
REMARK  149  A    between atoms: _370  and  _371
REMARK  150  A    between atoms: _371  and  _372
REMARK  151  A    between atoms: _375  and  _377
REMARK  152  A    between atoms: _377  and  _378
REMARK  153  A    between atoms: _377  and  _380
REMARK  154  A    between atoms: _380  and  _381
REMARK  155  A    between atoms: _383  and  _385
REMARK  156  A    between atoms: _385  and  _386
REMARK  157  A    between atoms: _385  and  _388
REMARK  158  A    between atoms: _388  and  _389
REMARK  159  A    between atoms: _392  and  _394
REMARK  160  A    between atoms: _394  and  _395
REMARK  161  A    between atoms: _394  and  _397
REMARK  162  A    between atoms: _397  and  _398
REMARK  163  A    between atoms: _398  and  _399
REMARK  164  A    between atoms: _399  and  _400
REMARK  165  A    between atoms: _409  and  _411
REMARK  166  A    between atoms: _411  and  _412
REMARK  167  A    between atoms: _411  and  _414
REMARK  168  A    between atoms: _414  and  _415
REMARK  169  A    between atoms: _420  and  _422
REMARK  170  A    between atoms: _422  and  _423
REMARK  171  A    between atoms: _422  and  _425
REMARK  172  A    between atoms: _425  and  _426
REMARK  173  A    between atoms: _429  and  _431
REMARK  174  A    between atoms: _431  and  _432
REMARK  175  A    between atoms: _431  and  _434
REMARK  176  A    between atoms: _434  and  _435
REMARK  177  A    between atoms: _440  and  _441
REMARK  178  A    between atoms: _443  and  _445
REMARK  179  A    between atoms: _445  and  _446
REMARK  180  A    between atoms: _445  and  _448
REMARK  181  A    between atoms: _448  and  _449
REMARK  182  A    between atoms: _452  and  _454
REMARK  183  A    between atoms: _454  and  _455
REMARK  184  A    between atoms: _454  and  _457
REMARK  185  A    between atoms: _457  and  _458
REMARK  186  A    between atoms: _458  and  _459
REMARK  187  A    between atoms: _464  and  _466
REMARK  188  A    between atoms: _466  and  _467
REMARK  189  A    between atoms: _466  and  _469
REMARK  190  A    between atoms: _469  and  _470
REMARK  191  A    between atoms: _470  and  _471
REMARK  192  A    between atoms: _471  and  _472
REMARK  193  A    between atoms: _481  and  _483
REMARK  194  A    between atoms: _483  and  _484
REMARK  195  A    between atoms: _483  and  _486
REMARK  196  A    between atoms: _486  and  _487
REMARK  197  A    between atoms: _487  and  _488
REMARK  198  A    between atoms: _490  and  _492
REMARK  199  A    between atoms: _492  and  _493
REMARK  200  A    between atoms: _492  and  _495
REMARK  201  A    between atoms: _495  and  _496
REMARK  202  A    between atoms: _501  and  _502
REMARK  203  A    between atoms: _504  and  _506
REMARK  204  A    between atoms: _506  and  _507
REMARK  205  A    between atoms: _509  and  _511
REMARK  206  A    between atoms: _511  and  _512
REMARK  207  A    between atoms: _511  and  _514
REMARK  208  A    between atoms: _514  and  _515
REMARK  209  A    between atoms: _515  and  _869
REMARK  210  A    between atoms: _516  and  _518
REMARK  211  A    between atoms: _518  and  _519
REMARK  212  A    between atoms: _518  and  _521
REMARK  213  A    between atoms: _521  and  _522
REMARK  214  A    between atoms: _525  and  _527
REMARK  215  A    between atoms: _527  and  _528
REMARK  216  A    between atoms: _527  and  _530
REMARK  217  A    between atoms: _530  and  _531
REMARK  218  A    between atoms: _531  and  _532
REMARK  219  A    between atoms: _537  and  _539
REMARK  220  A    between atoms: _539  and  _540
REMARK  221  A    between atoms: _539  and  _542
REMARK  222  A    between atoms: _542  and  _543
REMARK  223  A    between atoms: _545  and  _547
REMARK  224  A    between atoms: _547  and  _548
REMARK  225  A    between atoms: _551  and  _553
REMARK  226  A    between atoms: _553  and  _554
REMARK  227  A    between atoms: _553  and  _556
REMARK  228  A    between atoms: _556  and  _557
REMARK  229  A    between atoms: _562  and  _563
REMARK  230  A    between atoms: _565  and  _567
REMARK  231  A    between atoms: _567  and  _568
REMARK  232  A    between atoms: _567  and  _570
REMARK  233  A    between atoms: _570  and  _571
REMARK  234  A    between atoms: _576  and  _577
REMARK  235  A    between atoms: _579  and  _581
REMARK  236  A    between atoms: _581  and  _582
REMARK  237  A    between atoms: _581  and  _584
REMARK  238  A    between atoms: _584  and  _585
REMARK  239  A    between atoms: _588  and  _590
REMARK  240  A    between atoms: _590  and  _591
REMARK  241  A    between atoms: _594  and  _596
REMARK  242  A    between atoms: _596  and  _597
REMARK  243  A    between atoms: _596  and  _599
REMARK  244  A    between atoms: _599  and  _600
REMARK  245  A    between atoms: _610  and  _612
REMARK  246  A    between atoms: _612  and  _613
REMARK  247  A    between atoms: _616  and  _618
REMARK  248  A    between atoms: _618  and  _619
REMARK  249  A    between atoms: _622  and  _624
REMARK  250  A    between atoms: _624  and  _625
REMARK  251  A    between atoms: _624  and  _627
REMARK  252  A    between atoms: _627  and  _628
REMARK  253  A    between atoms: _628  and  _629
REMARK  254  A    between atoms: _634  and  _636
REMARK  255  A    between atoms: _636  and  _637
REMARK  256  A    between atoms: _636  and  _639
REMARK  257  A    between atoms: _639  and  _640
REMARK  258  A    between atoms: _643  and  _645
REMARK  259  A    between atoms: _645  and  _646
REMARK  260  A    between atoms: _645  and  _648
REMARK  261  A    between atoms: _648  and  _649
REMARK  262  A    between atoms: _652  and  _654
REMARK  263  A    between atoms: _654  and  _655
REMARK  264  A    between atoms: _654  and  _657
REMARK  265  A    between atoms: _657  and  _658
REMARK  266  A    between atoms: _658  and  _659
REMARK  267  A    between atoms: _664  and  _666
REMARK  268  A    between atoms: _666  and  _667
REMARK  269  A    between atoms: _666  and  _669
REMARK  270  A    between atoms: _669  and  _670
REMARK  271  A    between atoms: _670  and  _671
REMARK  272  A    between atoms: _671  and  _672
REMARK  273  A    between atoms: _681  and  _683
REMARK  274  A    between atoms: _683  and  _684
REMARK  275  A    between atoms: _683  and  _686
REMARK  276  A    between atoms: _686  and  _687
REMARK  277  A    between atoms: _687  and  _688
REMARK  278  A    between atoms: _688  and  _689
REMARK  279  A    between atoms: _689  and  _690
REMARK  280  A    between atoms: _694  and  _696
REMARK  281  A    between atoms: _696  and  _697
REMARK  282  A    between atoms: _696  and  _699
REMARK  283  A    between atoms: _699  and  _700
REMARK  284  A    between atoms: _710  and  _712
REMARK  285  A    between atoms: _712  and  _713
REMARK  286  A    between atoms: _712  and  _715
REMARK  287  A    between atoms: _715  and  _716
REMARK  288  A    between atoms: _716  and  _717
REMARK  289  A    between atoms: _720  and  _722
REMARK  290  A    between atoms: _722  and  _723
REMARK  291  A    between atoms: _726  and  _728
REMARK  292  A    between atoms: _728  and  _729
REMARK  293  A    between atoms: _732  and  _734
REMARK  294  A    between atoms: _734  and  _735
REMARK  295  A    between atoms: _734  and  _737
REMARK  296  A    between atoms: _737  and  _738
REMARK  297  A    between atoms: _738  and  _739
REMARK  298  A    between atoms: _739  and  _740
REMARK  299  A    between atoms: _749  and  _751
REMARK  300  A    between atoms: _751  and  _752
REMARK  301  A    between atoms: _751  and  _754
REMARK  302  A    between atoms: _754  and  _755
REMARK  303  A    between atoms: _755  and  _756
REMARK  304  A    between atoms: _759  and  _761
REMARK  305  A    between atoms: _761  and  _762
REMARK  306  A    between atoms: _765  and  _767
REMARK  307  A    between atoms: _767  and  _768
REMARK  308  A    between atoms: _767  and  _770
REMARK  309  A    between atoms: _770  and  _771
REMARK  310  A    between atoms: _771  and  _772
REMARK  311  A    between atoms: _775  and  _777
REMARK  312  A    between atoms: _777  and  _778
REMARK  313  A    between atoms: _777  and  _780
REMARK  314  A    between atoms: _780  and  _781
REMARK  315  A    between atoms: _781  and  _782
REMARK  316  A    between atoms: _787  and  _789
REMARK  317  A    between atoms: _789  and  _790
REMARK  318  A    between atoms: _789  and  _792
REMARK  319  A    between atoms: _792  and  _793
REMARK  320  A    between atoms: _803  and  _805
REMARK  321  A    between atoms: _805  and  _806
REMARK  322  A    between atoms: _805  and  _808
REMARK  323  A    between atoms: _808  and  _809
REMARK  324  A    between atoms: _809  and  _810
REMARK  325  A    between atoms: _810  and  _811
REMARK  326  A    between atoms: _820  and  _822
REMARK  327  A    between atoms: _822  and  _823
REMARK  328  A    between atoms: _826  and  _828
REMARK  329  A    between atoms: _828  and  _829
REMARK  330  A    between atoms: _828  and  _831
REMARK  331  A    between atoms: _831  and  _832
REMARK  332  A    between atoms: _837  and  _838
REMARK  333  A    between atoms: _840  and  _842
REMARK  334  A    between atoms: _842  and  _843
REMARK  335  A    between atoms: _842  and  _845
REMARK  336  A    between atoms: _845  and  _846
REMARK  337  A    between atoms: _849  and  _851
REMARK  338  A    between atoms: _851  and  _852
REMARK  339  A    between atoms: _854  and  _856
REMARK  340  A    between atoms: _856  and  _857
REMARK  341  A    between atoms: _856  and  _859
REMARK  342  A    between atoms: _859  and  _860
REMARK  343  A    between atoms: _863  and  _865
REMARK  344  A    between atoms: _865  and  _866
REMARK  345  A    between atoms: _865  and  _868
REMARK  346  A    between atoms: _868  and  _869
REMARK  347  A    between atoms: _870  and  _872
REMARK  348  A    between atoms: _872  and  _873
REMARK  349  A    between atoms: _872  and  _875
REMARK  350  A    between atoms: _878  and  _880
REMARK  351  A    between atoms: _880  and  _881
REMARK  352  A    between atoms: _880  and  _883
REMARK  353  A    between atoms: _883  and  _884
REMARK  354  A    between atoms: _884  and  _885
REMARK  355  A    between atoms: _888  and  _890
REMARK  356  A    between atoms: _890  and  _891
REMARK  357  A    between atoms: _890  and  _893
REMARK  358  A    between atoms: _893  and  _894
REMARK  359  A    between atoms: _904  and  _906
REMARK  360  A    between atoms: _906  and  _907
REMARK  361  A    between atoms: _906  and  _909
REMARK  362  A    between atoms: _909  and  _910
REMARK  363  A    between atoms: _913  and  _915
REMARK  364  A    between atoms: _915  and  _916
REMARK  365  A    between atoms: _915  and  _918
REMARK  366  A    between atoms: _918  and  _919
REMARK  367  A    between atoms: _919  and  _920
REMARK  368  A    between atoms: _920  and  _921
REMARK  369  A    between atoms: _930  and  _932
REMARK  370  A    between atoms: _932  and  _933
REMARK  371  A    between atoms: _932  and  _935
REMARK  372  A    between atoms: _935  and  _936
REMARK  373  A    between atoms: _941  and  _942
REMARK  374  A    between atoms: _944  and  _946
REMARK  375  A    between atoms: _946  and  _947
REMARK  376  A    between atoms: _946  and  _949
REMARK  377  A    between atoms: _949  and  _950
REMARK                            x       y       z     vdW  Elec       q    Type
REMARK                         _______ _______ _______ _____ _____    ______ ____
ROOT
ATOM      1  O   HOH     1      40.556  35.038  31.475  0.00  0.00    +0.000 OA
ENDROOT
TORSDOF 0
REMARK  Name = ../refined-set-2016/1xr9/1xr9_pocket.pdb
REMARK  377 active torsions:
REMARK  status: ('A' for Active; 'I' for Inactive)
REMARK    1  A    between atoms: _1  and  _3
REMARK    2  A    between atoms: _3  and  _4
REMARK    3  A    between atoms: _3  and  _6
REMARK    4  A    between atoms: _6  and  _7
REMARK    5  A    between atoms: _7  and  _8
REMARK    6  A    between atoms: _10  and  _12
REMARK    7  A    between atoms: _12  and  _13
REMARK    8  A    between atoms: _12  and  _15
REMARK    9  A    between atoms: _15  and  _16
REMARK   10  A    between atoms: _16  and  _17
REMARK   11  A    between atoms: _17  and  _18
REMARK   12  A    between atoms: _27  and  _29
REMARK   13  A    between atoms: _29  and  _30
REMARK   14  A    between atoms: _29  and  _32
REMARK   15  A    between atoms: _32  and  _33
REMARK   16  A    between atoms: _38  and  _39
REMARK   17  A    between atoms: _41  and  _43
REMARK   18  A    between atoms: _43  and  _44
REMARK   19  A    between atoms: _43  and  _46
REMARK   20  A    between atoms: _46  and  _47
REMARK   21  A    between atoms: _53  and  _55
REMARK   22  A    between atoms: _55  and  _56
REMARK   23  A    between atoms: _55  and  _58
REMARK   24  A    between atoms: _58  and  _59
REMARK   25  A    between atoms: _64  and  _65
REMARK   26  A    between atoms: _67  and  _69
REMARK   27  A    between atoms: _69  and  _70
REMARK   28  A    between atoms: _69  and  _72
REMARK   29  A    between atoms: _72  and  _73
REMARK   30  A    between atoms: _79  and  _81
REMARK   31  A    between atoms: _81  and  _82
REMARK   32  A    between atoms: _85  and  _87
REMARK   33  A    between atoms: _87  and  _88
REMARK   34  A    between atoms: _87  and  _90
REMARK   35  A    between atoms: _93  and  _95
REMARK   36  A    between atoms: _95  and  _96
REMARK   37  A    between atoms: _98  and  _100
REMARK   38  A    between atoms: _100  and  _101
REMARK   39  A    between atoms: _100  and  _103
REMARK   40  A    between atoms: _106  and  _108
REMARK   41  A    between atoms: _108  and  _109
REMARK   42  A    between atoms: _108  and  _111
REMARK   43  A    between atoms: _111  and  _112
REMARK   44  A    between atoms: _118  and  _120
REMARK   45  A    between atoms: _120  and  _121
REMARK   46  A    between atoms: _120  and  _123
REMARK   47  A    between atoms: _126  and  _128
REMARK   48  A    between atoms: _128  and  _129
REMARK   49  A    between atoms: _128  and  _131
REMARK   50  A    between atoms: _131  and  _132
REMARK   51  A    between atoms: _138  and  _140
REMARK   52  A    between atoms: _140  and  _141
REMARK   53  A    between atoms: _140  and  _143
REMARK   54  A    between atoms: _143  and  _144
REMARK   55  A    between atoms: _144  and  _145
REMARK   56  A    between atoms: _147  and  _149
REMARK   57  A    between atoms: _149  and  _150
REMARK   58  A    between atoms: _149  and  _152
REMARK   59  A    between atoms: _152  and  _153
REMARK   60  A    between atoms: _156  and  _158
REMARK   61  A    between atoms: _158  and  _159
REMARK   62  A    between atoms: _158  and  _161
REMARK   63  A    between atoms: _161  and  _162
REMARK   64  A    between atoms: _162  and  _163
REMARK   65  A    between atoms: _166  and  _168
REMARK   66  A    between atoms: _168  and  _169
REMARK   67  A    between atoms: _168  and  _171
REMARK   68  A    between atoms: _171  and  _172
REMARK   69  A    between atoms: _172  and  _173
REMARK   70  A    between atoms: _176  and  _178
REMARK   71  A    between atoms: _178  and  _179
REMARK   72  A    between atoms: _178  and  _181
REMARK   73  A    between atoms: _181  and  _182
REMARK   74  A    between atoms: _187  and  _188
REMARK   75  A    between atoms: _190  and  _192
REMARK   76  A    between atoms: _192  and  _193
REMARK   77  A    between atoms: _192  and  _195
REMARK   78  A    between atoms: _195  and  _196
REMARK   79  A    between atoms: _206  and  _208
REMARK   80  A    between atoms: _208  and  _209
REMARK   81  A    between atoms: _208  and  _211
REMARK   82  A    between atoms: _211  and  _212
REMARK   83  A    between atoms: _215  and  _217
REMARK   84  A    between atoms: _217  and  _218
REMARK   85  A    between atoms: _217  and  _220
REMARK   86  A    between atoms: _220  and  _221
REMARK   87  A    between atoms: _221  and  _222
REMARK   88  A    between atoms: _222  and  _223
REMARK   89  A    between atoms: _232  and  _234
REMARK   90  A    between atoms: _234  and  _235
REMARK   91  A    between atoms: _234  and  _237
REMARK   92  A    between atoms: _237  and  _238
REMARK   93  A    between atoms: _238  and  _239
REMARK   94  A    between atoms: _242  and  _244
REMARK   95  A    between atoms: _244  and  _245
REMARK   96  A    between atoms: _244  and  _247
REMARK   97  A    between atoms: _247  and  _248
REMARK   98  A    between atoms: _251  and  _253
REMARK   99  A    between atoms: _253  and  _254
REMARK  100  A    between atoms: _253  and  _256
REMARK  101  A    between atoms: _256  and  _257
REMARK  102  A    between atoms: _257  and  _258
REMARK  103  A    between atoms: _263  and  _265
REMARK  104  A    between atoms: _265  and  _266
REMARK  105  A    between atoms: _265  and  _268
REMARK  106  A    between atoms: _268  and  _269
REMARK  107  A    between atoms: _272  and  _274
REMARK  108  A    between atoms: _274  and  _275
REMARK  109  A    between atoms: _274  and  _277
REMARK  110  A    between atoms: _277  and  _278
REMARK  111  A    between atoms: _280  and  _282
REMARK  112  A    between atoms: _282  and  _283
REMARK  113  A    between atoms: _282  and  _285
REMARK  114  A    between atoms: _285  and  _286
REMARK  115  A    between atoms: _286  and  _287
REMARK  116  A    between atoms: _287  and  _288
REMARK  117  A    between atoms: _288  and  _289
REMARK  118  A    between atoms: _293  and  _295
REMARK  119  A    between atoms: _295  and  _296
REMARK  120  A    between atoms: _295  and  _298
REMARK  121  A    between atoms: _298  and  _299
REMARK  122  A    between atoms: _302  and  _304
REMARK  123  A    between atoms: _304  and  _305
REMARK  124  A    between atoms: _304  and  _307
REMARK  125  A    between atoms: _307  and  _308
REMARK  126  A    between atoms: _313  and  _315
REMARK  127  A    between atoms: _315  and  _316
REMARK  128  A    between atoms: _315  and  _318
REMARK  129  A    between atoms: _318  and  _319
REMARK  130  A    between atoms: _319  and  _320
REMARK  131  A    between atoms: _325  and  _327
REMARK  132  A    between atoms: _327  and  _328
REMARK  133  A    between atoms: _327  and  _330
REMARK  134  A    between atoms: _330  and  _331
REMARK  135  A    between atoms: _334  and  _336
REMARK  136  A    between atoms: _336  and  _337
REMARK  137  A    between atoms: _336  and  _339
REMARK  138  A    between atoms: _339  and  _340
REMARK  139  A    between atoms: _345  and  _346
REMARK  140  A    between atoms: _348  and  _350
REMARK  141  A    between atoms: _350  and  _351
REMARK  142  A    between atoms: _350  and  _353
REMARK  143  A    between atoms: _353  and  _354
REMARK  144  A    between atoms: _354  and  _355
REMARK  145  A    between atoms: _355  and  _356
REMARK  146  A    between atoms: _365  and  _367
REMARK  147  A    between atoms: _367  and  _368
REMARK  148  A    between atoms: _367  and  _370
REMARK  149  A    between atoms: _370  and  _371
REMARK  150  A    between atoms: _371  and  _372
REMARK  151  A    between atoms: _375  and  _377
REMARK  152  A    between atoms: _377  and  _378
REMARK  153  A    between atoms: _377  and  _380
REMARK  154  A    between atoms: _380  and  _381
REMARK  155  A    between atoms: _383  and  _385
REMARK  156  A    between atoms: _385  and  _386
REMARK  157  A    between atoms: _385  and  _388
REMARK  158  A    between atoms: _388  and  _389
REMARK  159  A    between atoms: _392  and  _394
REMARK  160  A    between atoms: _394  and  _395
REMARK  161  A    between atoms: _394  and  _397
REMARK  162  A    between atoms: _397  and  _398
REMARK  163  A    between atoms: _398  and  _399
REMARK  164  A    between atoms: _399  and  _400
REMARK  165  A    between atoms: _409  and  _411
REMARK  166  A    between atoms: _411  and  _412
REMARK  167  A    between atoms: _411  and  _414
REMARK  168  A    between atoms: _414  and  _415
REMARK  169  A    between atoms: _420  and  _422
REMARK  170  A    between atoms: _422  and  _423
REMARK  171  A    between atoms: _422  and  _425
REMARK  172  A    between atoms: _425  and  _426
REMARK  173  A    between atoms: _429  and  _431
REMARK  174  A    between atoms: _431  and  _432
REMARK  175  A    between atoms: _431  and  _434
REMARK  176  A    between atoms: _434  and  _435
REMARK  177  A    between atoms: _440  and  _441
REMARK  178  A    between atoms: _443  and  _445
REMARK  179  A    between atoms: _445  and  _446
REMARK  180  A    between atoms: _445  and  _448
REMARK  181  A    between atoms: _448  and  _449
REMARK  182  A    between atoms: _452  and  _454
REMARK  183  A    between atoms: _454  and  _455
REMARK  184  A    between atoms: _454  and  _457
REMARK  185  A    between atoms: _457  and  _458
REMARK  186  A    between atoms: _458  and  _459
REMARK  187  A    between atoms: _464  and  _466
REMARK  188  A    between atoms: _466  and  _467
REMARK  189  A    between atoms: _466  and  _469
REMARK  190  A    between atoms: _469  and  _470
REMARK  191  A    between atoms: _470  and  _471
REMARK  192  A    between atoms: _471  and  _472
REMARK  193  A    between atoms: _481  and  _483
REMARK  194  A    between atoms: _483  and  _484
REMARK  195  A    between atoms: _483  and  _486
REMARK  196  A    between atoms: _486  and  _487
REMARK  197  A    between atoms: _487  and  _488
REMARK  198  A    between atoms: _490  and  _492
REMARK  199  A    between atoms: _492  and  _493
REMARK  200  A    between atoms: _492  and  _495
REMARK  201  A    between atoms: _495  and  _496
REMARK  202  A    between atoms: _501  and  _502
REMARK  203  A    between atoms: _504  and  _506
REMARK  204  A    between atoms: _506  and  _507
REMARK  205  A    between atoms: _509  and  _511
REMARK  206  A    between atoms: _511  and  _512
REMARK  207  A    between atoms: _511  and  _514
REMARK  208  A    between atoms: _514  and  _515
REMARK  209  A    between atoms: _515  and  _869
REMARK  210  A    between atoms: _516  and  _518
REMARK  211  A    between atoms: _518  and  _519
REMARK  212  A    between atoms: _518  and  _521
REMARK  213  A    between atoms: _521  and  _522
REMARK  214  A    between atoms: _525  and  _527
REMARK  215  A    between atoms: _527  and  _528
REMARK  216  A    between atoms: _527  and  _530
REMARK  217  A    between atoms: _530  and  _531
REMARK  218  A    between atoms: _531  and  _532
REMARK  219  A    between atoms: _537  and  _539
REMARK  220  A    between atoms: _539  and  _540
REMARK  221  A    between atoms: _539  and  _542
REMARK  222  A    between atoms: _542  and  _543
REMARK  223  A    between atoms: _545  and  _547
REMARK  224  A    between atoms: _547  and  _548
REMARK  225  A    between atoms: _551  and  _553
REMARK  226  A    between atoms: _553  and  _554
REMARK  227  A    between atoms: _553  and  _556
REMARK  228  A    between atoms: _556  and  _557
REMARK  229  A    between atoms: _562  and  _563
REMARK  230  A    between atoms: _565  and  _567
REMARK  231  A    between atoms: _567  and  _568
REMARK  232  A    between atoms: _567  and  _570
REMARK  233  A    between atoms: _570  and  _571
REMARK  234  A    between atoms: _576  and  _577
REMARK  235  A    between atoms: _579  and  _581
REMARK  236  A    between atoms: _581  and  _582
REMARK  237  A    between atoms: _581  and  _584
REMARK  238  A    between atoms: _584  and  _585
REMARK  239  A    between atoms: _588  and  _590
REMARK  240  A    between atoms: _590  and  _591
REMARK  241  A    between atoms: _594  and  _596
REMARK  242  A    between atoms: _596  and  _597
REMARK  243  A    between atoms: _596  and  _599
REMARK  244  A    between atoms: _599  and  _600
REMARK  245  A    between atoms: _610  and  _612
REMARK  246  A    between atoms: _612  and  _613
REMARK  247  A    between atoms: _616  and  _618
REMARK  248  A    between atoms: _618  and  _619
REMARK  249  A    between atoms: _622  and  _624
REMARK  250  A    between atoms: _624  and  _625
REMARK  251  A    between atoms: _624  and  _627
REMARK  252  A    between atoms: _627  and  _628
REMARK  253  A    between atoms: _628  and  _629
REMARK  254  A    between atoms: _634  and  _636
REMARK  255  A    between atoms: _636  and  _637
REMARK  256  A    between atoms: _636  and  _639
REMARK  257  A    between atoms: _639  and  _640
REMARK  258  A    between atoms: _643  and  _645
REMARK  259  A    between atoms: _645  and  _646
REMARK  260  A    between atoms: _645  and  _648
REMARK  261  A    between atoms: _648  and  _649
REMARK  262  A    between atoms: _652  and  _654
REMARK  263  A    between atoms: _654  and  _655
REMARK  264  A    between atoms: _654  and  _657
REMARK  265  A    between atoms: _657  and  _658
REMARK  266  A    between atoms: _658  and  _659
REMARK  267  A    between atoms: _664  and  _666
REMARK  268  A    between atoms: _666  and  _667
REMARK  269  A    between atoms: _666  and  _669
REMARK  270  A    between atoms: _669  and  _670
REMARK  271  A    between atoms: _670  and  _671
REMARK  272  A    between atoms: _671  and  _672
REMARK  273  A    between atoms: _681  and  _683
REMARK  274  A    between atoms: _683  and  _684
REMARK  275  A    between atoms: _683  and  _686
REMARK  276  A    between atoms: _686  and  _687
REMARK  277  A    between atoms: _687  and  _688
REMARK  278  A    between atoms: _688  and  _689
REMARK  279  A    between atoms: _689  and  _690
REMARK  280  A    between atoms: _694  and  _696
REMARK  281  A    between atoms: _696  and  _697
REMARK  282  A    between atoms: _696  and  _699
REMARK  283  A    between atoms: _699  and  _700
REMARK  284  A    between atoms: _710  and  _712
REMARK  285  A    between atoms: _712  and  _713
REMARK  286  A    between atoms: _712  and  _715
REMARK  287  A    between atoms: _715  and  _716
REMARK  288  A    between atoms: _716  and  _717
REMARK  289  A    between atoms: _720  and  _722
REMARK  290  A    between atoms: _722  and  _723
REMARK  291  A    between atoms: _726  and  _728
REMARK  292  A    between atoms: _728  and  _729
REMARK  293  A    between atoms: _732  and  _734
REMARK  294  A    between atoms: _734  and  _735
REMARK  295  A    between atoms: _734  and  _737
REMARK  296  A    between atoms: _737  and  _738
REMARK  297  A    between atoms: _738  and  _739
REMARK  298  A    between atoms: _739  and  _740
REMARK  299  A    between atoms: _749  and  _751
REMARK  300  A    between atoms: _751  and  _752
REMARK  301  A    between atoms: _751  and  _754
REMARK  302  A    between atoms: _754  and  _755
REMARK  303  A    between atoms: _755  and  _756
REMARK  304  A    between atoms: _759  and  _761
REMARK  305  A    between atoms: _761  and  _762
REMARK  306  A    between atoms: _765  and  _767
REMARK  307  A    between atoms: _767  and  _768
REMARK  308  A    between atoms: _767  and  _770
REMARK  309  A    between atoms: _770  and  _771
REMARK  310  A    between atoms: _771  and  _772
REMARK  311  A    between atoms: _775  and  _777
REMARK  312  A    between atoms: _777  and  _778
REMARK  313  A    between atoms: _777  and  _780
REMARK  314  A    between atoms: _780  and  _781
REMARK  315  A    between atoms: _781  and  _782
REMARK  316  A    between atoms: _787  and  _789
REMARK  317  A    between atoms: _789  and  _790
REMARK  318  A    between atoms: _789  and  _792
REMARK  319  A    between atoms: _792  and  _793
REMARK  320  A    between atoms: _803  and  _805
REMARK  321  A    between atoms: _805  and  _806
REMARK  322  A    between atoms: _805  and  _808
REMARK  323  A    between atoms: _808  and  _809
REMARK  324  A    between atoms: _809  and  _810
REMARK  325  A    between atoms: _810  and  _811
REMARK  326  A    between atoms: _820  and  _822
REMARK  327  A    between atoms: _822  and  _823
REMARK  328  A    between atoms: _826  and  _828
REMARK  329  A    between atoms: _828  and  _829
REMARK  330  A    between atoms: _828  and  _831
REMARK  331  A    between atoms: _831  and  _832
REMARK  332  A    between atoms: _837  and  _838
REMARK  333  A    between atoms: _840  and  _842
REMARK  334  A    between atoms: _842  and  _843
REMARK  335  A    between atoms: _842  and  _845
REMARK  336  A    between atoms: _845  and  _846
REMARK  337  A    between atoms: _849  and  _851
REMARK  338  A    between atoms: _851  and  _852
REMARK  339  A    between atoms: _854  and  _856
REMARK  340  A    between atoms: _856  and  _857
REMARK  341  A    between atoms: _856  and  _859
REMARK  342  A    between atoms: _859  and  _860
REMARK  343  A    between atoms: _863  and  _865
REMARK  344  A    between atoms: _865  and  _866
REMARK  345  A    between atoms: _865  and  _868
REMARK  346  A    between atoms: _868  and  _869
REMARK  347  A    between atoms: _870  and  _872
REMARK  348  A    between atoms: _872  and  _873
REMARK  349  A    between atoms: _872  and  _875
REMARK  350  A    between atoms: _878  and  _880
REMARK  351  A    between atoms: _880  and  _881
REMARK  352  A    between atoms: _880  and  _883
REMARK  353  A    between atoms: _883  and  _884
REMARK  354  A    between atoms: _884  and  _885
REMARK  355  A    between atoms: _888  and  _890
REMARK  356  A    between atoms: _890  and  _891
REMARK  357  A    between atoms: _890  and  _893
REMARK  358  A    between atoms: _893  and  _894
REMARK  359  A    between atoms: _904  and  _906
REMARK  360  A    between atoms: _906  and  _907
REMARK  361  A    between atoms: _906  and  _909
REMARK  362  A    between atoms: _909  and  _910
REMARK  363  A    between atoms: _913  and  _915
REMARK  364  A    between atoms: _915  and  _916
REMARK  365  A    between atoms: _915  and  _918
REMARK  366  A    between atoms: _918  and  _919
REMARK  367  A    between atoms: _919  and  _920
REMARK  368  A    between atoms: _920  and  _921
REMARK  369  A    between atoms: _930  and  _932
REMARK  370  A    between atoms: _932  and  _933
REMARK  371  A    between atoms: _932  and  _935
REMARK  372  A    between atoms: _935  and  _936
REMARK  373  A    between atoms: _941  and  _942
REMARK  374  A    between atoms: _944  and  _946
REMARK  375  A    between atoms: _946  and  _947
REMARK  376  A    between atoms: _946  and  _949
REMARK  377  A    between atoms: _949  and  _950
REMARK                            x       y       z     vdW  Elec       q    Type
REMARK                         _______ _______ _______ _____ _____    ______ ____
ROOT
ATOM      1  O   HOH     1      30.521  23.071  39.278  0.00  0.00    +0.000 OA
ENDROOT
TORSDOF 0
REMARK  Name = ../refined-set-2016/1xr9/1xr9_pocket.pdb
REMARK  377 active torsions:
REMARK  status: ('A' for Active; 'I' for Inactive)
REMARK    1  A    between atoms: _1  and  _3
REMARK    2  A    between atoms: _3  and  _4
REMARK    3  A    between atoms: _3  and  _6
REMARK    4  A    between atoms: _6  and  _7
REMARK    5  A    between atoms: _7  and  _8
REMARK    6  A    between atoms: _10  and  _12
REMARK    7  A    between atoms: _12  and  _13
REMARK    8  A    between atoms: _12  and  _15
REMARK    9  A    between atoms: _15  and  _16
REMARK   10  A    between atoms: _16  and  _17
REMARK   11  A    between atoms: _17  and  _18
REMARK   12  A    between atoms: _27  and  _29
REMARK   13  A    between atoms: _29  and  _30
REMARK   14  A    between atoms: _29  and  _32
REMARK   15  A    between atoms: _32  and  _33
REMARK   16  A    between atoms: _38  and  _39
REMARK   17  A    between atoms: _41  and  _43
REMARK   18  A    between atoms: _43  and  _44
REMARK   19  A    between atoms: _43  and  _46
REMARK   20  A    between atoms: _46  and  _47
REMARK   21  A    between atoms: _53  and  _55
REMARK   22  A    between atoms: _55  and  _56
REMARK   23  A    between atoms: _55  and  _58
REMARK   24  A    between atoms: _58  and  _59
REMARK   25  A    between atoms: _64  and  _65
REMARK   26  A    between atoms: _67  and  _69
REMARK   27  A    between atoms: _69  and  _70
REMARK   28  A    between atoms: _69  and  _72
REMARK   29  A    between atoms: _72  and  _73
REMARK   30  A    between atoms: _79  and  _81
REMARK   31  A    between atoms: _81  and  _82
REMARK   32  A    between atoms: _85  and  _87
REMARK   33  A    between atoms: _87  and  _88
REMARK   34  A    between atoms: _87  and  _90
REMARK   35  A    between atoms: _93  and  _95
REMARK   36  A    between atoms: _95  and  _96
REMARK   37  A    between atoms: _98  and  _100
REMARK   38  A    between atoms: _100  and  _101
REMARK   39  A    between atoms: _100  and  _103
REMARK   40  A    between atoms: _106  and  _108
REMARK   41  A    between atoms: _108  and  _109
REMARK   42  A    between atoms: _108  and  _111
REMARK   43  A    between atoms: _111  and  _112
REMARK   44  A    between atoms: _118  and  _120
REMARK   45  A    between atoms: _120  and  _121
REMARK   46  A    between atoms: _120  and  _123
REMARK   47  A    between atoms: _126  and  _128
REMARK   48  A    between atoms: _128  and  _129
REMARK   49  A    between atoms: _128  and  _131
REMARK   50  A    between atoms: _131  and  _132
REMARK   51  A    between atoms: _138  and  _140
REMARK   52  A    between atoms: _140  and  _141
REMARK   53  A    between atoms: _140  and  _143
REMARK   54  A    between atoms: _143  and  _144
REMARK   55  A    between atoms: _144  and  _145
REMARK   56  A    between atoms: _147  and  _149
REMARK   57  A    between atoms: _149  and  _150
REMARK   58  A    between atoms: _149  and  _152
REMARK   59  A    between atoms: _152  and  _153
REMARK   60  A    between atoms: _156  and  _158
REMARK   61  A    between atoms: _158  and  _159
REMARK   62  A    between atoms: _158  and  _161
REMARK   63  A    between atoms: _161  and  _162
REMARK   64  A    between atoms: _162  and  _163
REMARK   65  A    between atoms: _166  and  _168
REMARK   66  A    between atoms: _168  and  _169
REMARK   67  A    between atoms: _168  and  _171
REMARK   68  A    between atoms: _171  and  _172
REMARK   69  A    between atoms: _172  and  _173
REMARK   70  A    between atoms: _176  and  _178
REMARK   71  A    between atoms: _178  and  _179
REMARK   72  A    between atoms: _178  and  _181
REMARK   73  A    between atoms: _181  and  _182
REMARK   74  A    between atoms: _187  and  _188
REMARK   75  A    between atoms: _190  and  _192
REMARK   76  A    between atoms: _192  and  _193
REMARK   77  A    between atoms: _192  and  _195
REMARK   78  A    between atoms: _195  and  _196
REMARK   79  A    between atoms: _206  and  _208
REMARK   80  A    between atoms: _208  and  _209
REMARK   81  A    between atoms: _208  and  _211
REMARK   82  A    between atoms: _211  and  _212
REMARK   83  A    between atoms: _215  and  _217
REMARK   84  A    between atoms: _217  and  _218
REMARK   85  A    between atoms: _217  and  _220
REMARK   86  A    between atoms: _220  and  _221
REMARK   87  A    between atoms: _221  and  _222
REMARK   88  A    between atoms: _222  and  _223
REMARK   89  A    between atoms: _232  and  _234
REMARK   90  A    between atoms: _234  and  _235
REMARK   91  A    between atoms: _234  and  _237
REMARK   92  A    between atoms: _237  and  _238
REMARK   93  A    between atoms: _238  and  _239
REMARK   94  A    between atoms: _242  and  _244
REMARK   95  A    between atoms: _244  and  _245
REMARK   96  A    between atoms: _244  and  _247
REMARK   97  A    between atoms: _247  and  _248
REMARK   98  A    between atoms: _251  and  _253
REMARK   99  A    between atoms: _253  and  _254
REMARK  100  A    between atoms: _253  and  _256
REMARK  101  A    between atoms: _256  and  _257
REMARK  102  A    between atoms: _257  and  _258
REMARK  103  A    between atoms: _263  and  _265
REMARK  104  A    between atoms: _265  and  _266
REMARK  105  A    between atoms: _265  and  _268
REMARK  106  A    between atoms: _268  and  _269
REMARK  107  A    between atoms: _272  and  _274
REMARK  108  A    between atoms: _274  and  _275
REMARK  109  A    between atoms: _274  and  _277
REMARK  110  A    between atoms: _277  and  _278
REMARK  111  A    between atoms: _280  and  _282
REMARK  112  A    between atoms: _282  and  _283
REMARK  113  A    between atoms: _282  and  _285
REMARK  114  A    between atoms: _285  and  _286
REMARK  115  A    between atoms: _286  and  _287
REMARK  116  A    between atoms: _287  and  _288
REMARK  117  A    between atoms: _288  and  _289
REMARK  118  A    between atoms: _293  and  _295
REMARK  119  A    between atoms: _295  and  _296
REMARK  120  A    between atoms: _295  and  _298
REMARK  121  A    between atoms: _298  and  _299
REMARK  122  A    between atoms: _302  and  _304
REMARK  123  A    between atoms: _304  and  _305
REMARK  124  A    between atoms: _304  and  _307
REMARK  125  A    between atoms: _307  and  _308
REMARK  126  A    between atoms: _313  and  _315
REMARK  127  A    between atoms: _315  and  _316
REMARK  128  A    between atoms: _315  and  _318
REMARK  129  A    between atoms: _318  and  _319
REMARK  130  A    between atoms: _319  and  _320
REMARK  131  A    between atoms: _325  and  _327
REMARK  132  A    between atoms: _327  and  _328
REMARK  133  A    between atoms: _327  and  _330
REMARK  134  A    between atoms: _330  and  _331
REMARK  135  A    between atoms: _334  and  _336
REMARK  136  A    between atoms: _336  and  _337
REMARK  137  A    between atoms: _336  and  _339
REMARK  138  A    between atoms: _339  and  _340
REMARK  139  A    between atoms: _345  and  _346
REMARK  140  A    between atoms: _348  and  _350
REMARK  141  A    between atoms: _350  and  _351
REMARK  142  A    between atoms: _350  and  _353
REMARK  143  A    between atoms: _353  and  _354
REMARK  144  A    between atoms: _354  and  _355
REMARK  145  A    between atoms: _355  and  _356
REMARK  146  A    between atoms: _365  and  _367
REMARK  147  A    between atoms: _367  and  _368
REMARK  148  A    between atoms: _367  and  _370
REMARK  149  A    between atoms: _370  and  _371
REMARK  150  A    between atoms: _371  and  _372
REMARK  151  A    between atoms: _375  and  _377
REMARK  152  A    between atoms: _377  and  _378
REMARK  153  A    between atoms: _377  and  _380
REMARK  154  A    between atoms: _380  and  _381
REMARK  155  A    between atoms: _383  and  _385
REMARK  156  A    between atoms: _385  and  _386
REMARK  157  A    between atoms: _385  and  _388
REMARK  158  A    between atoms: _388  and  _389
REMARK  159  A    between atoms: _392  and  _394
REMARK  160  A    between atoms: _394  and  _395
REMARK  161  A    between atoms: _394  and  _397
REMARK  162  A    between atoms: _397  and  _398
REMARK  163  A    between atoms: _398  and  _399
REMARK  164  A    between atoms: _399  and  _400
REMARK  165  A    between atoms: _409  and  _411
REMARK  166  A    between atoms: _411  and  _412
REMARK  167  A    between atoms: _411  and  _414
REMARK  168  A    between atoms: _414  and  _415
REMARK  169  A    between atoms: _420  and  _422
REMARK  170  A    between atoms: _422  and  _423
REMARK  171  A    between atoms: _422  and  _425
REMARK  172  A    between atoms: _425  and  _426
REMARK  173  A    between atoms: _429  and  _431
REMARK  174  A    between atoms: _431  and  _432
REMARK  175  A    between atoms: _431  and  _434
REMARK  176  A    between atoms: _434  and  _435
REMARK  177  A    between atoms: _440  and  _441
REMARK  178  A    between atoms: _443  and  _445
REMARK  179  A    between atoms: _445  and  _446
REMARK  180  A    between atoms: _445  and  _448
REMARK  181  A    between atoms: _448  and  _449
REMARK  182  A    between atoms: _452  and  _454
REMARK  183  A    between atoms: _454  and  _455
REMARK  184  A    between atoms: _454  and  _457
REMARK  185  A    between atoms: _457  and  _458
REMARK  186  A    between atoms: _458  and  _459
REMARK  187  A    between atoms: _464  and  _466
REMARK  188  A    between atoms: _466  and  _467
REMARK  189  A    between atoms: _466  and  _469
REMARK  190  A    between atoms: _469  and  _470
REMARK  191  A    between atoms: _470  and  _471
REMARK  192  A    between atoms: _471  and  _472
REMARK  193  A    between atoms: _481  and  _483
REMARK  194  A    between atoms: _483  and  _484
REMARK  195  A    between atoms: _483  and  _486
REMARK  196  A    between atoms: _486  and  _487
REMARK  197  A    between atoms: _487  and  _488
REMARK  198  A    between atoms: _490  and  _492
REMARK  199  A    between atoms: _492  and  _493
REMARK  200  A    between atoms: _492  and  _495
REMARK  201  A    between atoms: _495  and  _496
REMARK  202  A    between atoms: _501  and  _502
REMARK  203  A    between atoms: _504  and  _506
REMARK  204  A    between atoms: _506  and  _507
REMARK  205  A    between atoms: _509  and  _511
REMARK  206  A    between atoms: _511  and  _512
REMARK  207  A    between atoms: _511  and  _514
REMARK  208  A    between atoms: _514  and  _515
REMARK  209  A    between atoms: _515  and  _869
REMARK  210  A    between atoms: _516  and  _518
REMARK  211  A    between atoms: _518  and  _519
REMARK  212  A    between atoms: _518  and  _521
REMARK  213  A    between atoms: _521  and  _522
REMARK  214  A    between atoms: _525  and  _527
REMARK  215  A    between atoms: _527  and  _528
REMARK  216  A    between atoms: _527  and  _530
REMARK  217  A    between atoms: _530  and  _531
REMARK  218  A    between atoms: _531  and  _532
REMARK  219  A    between atoms: _537  and  _539
REMARK  220  A    between atoms: _539  and  _540
REMARK  221  A    between atoms: _539  and  _542
REMARK  222  A    between atoms: _542  and  _543
REMARK  223  A    between atoms: _545  and  _547
REMARK  224  A    between atoms: _547  and  _548
REMARK  225  A    between atoms: _551  and  _553
REMARK  226  A    between atoms: _553  and  _554
REMARK  227  A    between atoms: _553  and  _556
REMARK  228  A    between atoms: _556  and  _557
REMARK  229  A    between atoms: _562  and  _563
REMARK  230  A    between atoms: _565  and  _567
REMARK  231  A    between atoms: _567  and  _568
REMARK  232  A    between atoms: _567  and  _570
REMARK  233  A    between atoms: _570  and  _571
REMARK  234  A    between atoms: _576  and  _577
REMARK  235  A    between atoms: _579  and  _581
REMARK  236  A    between atoms: _581  and  _582
REMARK  237  A    between atoms: _581  and  _584
REMARK  238  A    between atoms: _584  and  _585
REMARK  239  A    between atoms: _588  and  _590
REMARK  240  A    between atoms: _590  and  _591
REMARK  241  A    between atoms: _594  and  _596
REMARK  242  A    between atoms: _596  and  _597
REMARK  243  A    between atoms: _596  and  _599
REMARK  244  A    between atoms: _599  and  _600
REMARK  245  A    between atoms: _610  and  _612
REMARK  246  A    between atoms: _612  and  _613
REMARK  247  A    between atoms: _616  and  _618
REMARK  248  A    between atoms: _618  and  _619
REMARK  249  A    between atoms: _622  and  _624
REMARK  250  A    between atoms: _624  and  _625
REMARK  251  A    between atoms: _624  and  _627
REMARK  252  A    between atoms: _627  and  _628
REMARK  253  A    between atoms: _628  and  _629
REMARK  254  A    between atoms: _634  and  _636
REMARK  255  A    between atoms: _636  and  _637
REMARK  256  A    between atoms: _636  and  _639
REMARK  257  A    between atoms: _639  and  _640
REMARK  258  A    between atoms: _643  and  _645
REMARK  259  A    between atoms: _645  and  _646
REMARK  260  A    between atoms: _645  and  _648
REMARK  261  A    between atoms: _648  and  _649
REMARK  262  A    between atoms: _652  and  _654
REMARK  263  A    between atoms: _654  and  _655
REMARK  264  A    between atoms: _654  and  _657
REMARK  265  A    between atoms: _657  and  _658
REMARK  266  A    between atoms: _658  and  _659
REMARK  267  A    between atoms: _664  and  _666
REMARK  268  A    between atoms: _666  and  _667
REMARK  269  A    between atoms: _666  and  _669
REMARK  270  A    between atoms: _669  and  _670
REMARK  271  A    between atoms: _670  and  _671
REMARK  272  A    between atoms: _671  and  _672
REMARK  273  A    between atoms: _681  and  _683
REMARK  274  A    between atoms: _683  and  _684
REMARK  275  A    between atoms: _683  and  _686
REMARK  276  A    between atoms: _686  and  _687
REMARK  277  A    between atoms: _687  and  _688
REMARK  278  A    between atoms: _688  and  _689
REMARK  279  A    between atoms: _689  and  _690
REMARK  280  A    between atoms: _694  and  _696
REMARK  281  A    between atoms: _696  and  _697
REMARK  282  A    between atoms: _696  and  _699
REMARK  283  A    between atoms: _699  and  _700
REMARK  284  A    between atoms: _710  and  _712
REMARK  285  A    between atoms: _712  and  _713
REMARK  286  A    between atoms: _712  and  _715
REMARK  287  A    between atoms: _715  and  _716
REMARK  288  A    between atoms: _716  and  _717
REMARK  289  A    between atoms: _720  and  _722
REMARK  290  A    between atoms: _722  and  _723
REMARK  291  A    between atoms: _726  and  _728
REMARK  292  A    between atoms: _728  and  _729
REMARK  293  A    between atoms: _732  and  _734
REMARK  294  A    between atoms: _734  and  _735
REMARK  295  A    between atoms: _734  and  _737
REMARK  296  A    between atoms: _737  and  _738
REMARK  297  A    between atoms: _738  and  _739
REMARK  298  A    between atoms: _739  and  _740
REMARK  299  A    between atoms: _749  and  _751
REMARK  300  A    between atoms: _751  and  _752
REMARK  301  A    between atoms: _751  and  _754
REMARK  302  A    between atoms: _754  and  _755
REMARK  303  A    between atoms: _755  and  _756
REMARK  304  A    between atoms: _759  and  _761
REMARK  305  A    between atoms: _761  and  _762
REMARK  306  A    between atoms: _765  and  _767
REMARK  307  A    between atoms: _767  and  _768
REMARK  308  A    between atoms: _767  and  _770
REMARK  309  A    between atoms: _770  and  _771
REMARK  310  A    between atoms: _771  and  _772
REMARK  311  A    between atoms: _775  and  _777
REMARK  312  A    between atoms: _777  and  _778
REMARK  313  A    between atoms: _777  and  _780
REMARK  314  A    between atoms: _780  and  _781
REMARK  315  A    between atoms: _781  and  _782
REMARK  316  A    between atoms: _787  and  _789
REMARK  317  A    between atoms: _789  and  _790
REMARK  318  A    between atoms: _789  and  _792
REMARK  319  A    between atoms: _792  and  _793
REMARK  320  A    between atoms: _803  and  _805
REMARK  321  A    between atoms: _805  and  _806
REMARK  322  A    between atoms: _805  and  _808
REMARK  323  A    between atoms: _808  and  _809
REMARK  324  A    between atoms: _809  and  _810
REMARK  325  A    between atoms: _810  and  _811
REMARK  326  A    between atoms: _820  and  _822
REMARK  327  A    between atoms: _822  and  _823
REMARK  328  A    between atoms: _826  and  _828
REMARK  329  A    between atoms: _828  and  _829
REMARK  330  A    between atoms: _828  and  _831
REMARK  331  A    between atoms: _831  and  _832
REMARK  332  A    between atoms: _837  and  _838
REMARK  333  A    between atoms: _840  and  _842
REMARK  334  A    between atoms: _842  and  _843
REMARK  335  A    between atoms: _842  and  _845
REMARK  336  A    between atoms: _845  and  _846
REMARK  337  A    between atoms: _849  and  _851
REMARK  338  A    between atoms: _851  and  _852
REMARK  339  A    between atoms: _854  and  _856
REMARK  340  A    between atoms: _856  and  _857
REMARK  341  A    between atoms: _856  and  _859
REMARK  342  A    between atoms: _859  and  _860
REMARK  343  A    between atoms: _863  and  _865
REMARK  344  A    between atoms: _865  and  _866
REMARK  345  A    between atoms: _865  and  _868
REMARK  346  A    between atoms: _868  and  _869
REMARK  347  A    between atoms: _870  and  _872
REMARK  348  A    between atoms: _872  and  _873
REMARK  349  A    between atoms: _872  and  _875
REMARK  350  A    between atoms: _878  and  _880
REMARK  351  A    between atoms: _880  and  _881
REMARK  352  A    between atoms: _880  and  _883
REMARK  353  A    between atoms: _883  and  _884
REMARK  354  A    between atoms: _884  and  _885
REMARK  355  A    between atoms: _888  and  _890
REMARK  356  A    between atoms: _890  and  _891
REMARK  357  A    between atoms: _890  and  _893
REMARK  358  A    between atoms: _893  and  _894
REMARK  359  A    between atoms: _904  and  _906
REMARK  360  A    between atoms: _906  and  _907
REMARK  361  A    between atoms: _906  and  _909
REMARK  362  A    between atoms: _909  and  _910
REMARK  363  A    between atoms: _913  and  _915
REMARK  364  A    between atoms: _915  and  _916
REMARK  365  A    between atoms: _915  and  _918
REMARK  366  A    between atoms: _918  and  _919
REMARK  367  A    between atoms: _919  and  _920
REMARK  368  A    between atoms: _920  and  _921
REMARK  369  A    between atoms: _930  and  _932
REMARK  370  A    between atoms: _932  and  _933
REMARK  371  A    between atoms: _932  and  _935
REMARK  372  A    between atoms: _935  and  _936
REMARK  373  A    between atoms: _941  and  _942
REMARK  374  A    between atoms: _944  and  _946
REMARK  375  A    between atoms: _946  and  _947
REMARK  376  A    between atoms: _946  and  _949
REMARK  377  A    between atoms: _949  and  _950
REMARK                            x       y       z     vdW  Elec       q    Type
REMARK                         _______ _______ _______ _____ _____    ______ ____
ROOT
ATOM      1  O   HOH     1       8.199  21.757  42.073  0.00  0.00    +0.000 OA
ENDROOT
TORSDOF 0
REMARK  Name = ../refined-set-2016/1xr9/1xr9_pocket.pdb
REMARK  377 active torsions:
REMARK  status: ('A' for Active; 'I' for Inactive)
REMARK    1  A    between atoms: _1  and  _3
REMARK    2  A    between atoms: _3  and  _4
REMARK    3  A    between atoms: _3  and  _6
REMARK    4  A    between atoms: _6  and  _7
REMARK    5  A    between atoms: _7  and  _8
REMARK    6  A    between atoms: _10  and  _12
REMARK    7  A    between atoms: _12  and  _13
REMARK    8  A    between atoms: _12  and  _15
REMARK    9  A    between atoms: _15  and  _16
REMARK   10  A    between atoms: _16  and  _17
REMARK   11  A    between atoms: _17  and  _18
REMARK   12  A    between atoms: _27  and  _29
REMARK   13  A    between atoms: _29  and  _30
REMARK   14  A    between atoms: _29  and  _32
REMARK   15  A    between atoms: _32  and  _33
REMARK   16  A    between atoms: _38  and  _39
REMARK   17  A    between atoms: _41  and  _43
REMARK   18  A    between atoms: _43  and  _44
REMARK   19  A    between atoms: _43  and  _46
REMARK   20  A    between atoms: _46  and  _47
REMARK   21  A    between atoms: _53  and  _55
REMARK   22  A    between atoms: _55  and  _56
REMARK   23  A    between atoms: _55  and  _58
REMARK   24  A    between atoms: _58  and  _59
REMARK   25  A    between atoms: _64  and  _65
REMARK   26  A    between atoms: _67  and  _69
REMARK   27  A    between atoms: _69  and  _70
REMARK   28  A    between atoms: _69  and  _72
REMARK   29  A    between atoms: _72  and  _73
REMARK   30  A    between atoms: _79  and  _81
REMARK   31  A    between atoms: _81  and  _82
REMARK   32  A    between atoms: _85  and  _87
REMARK   33  A    between atoms: _87  and  _88
REMARK   34  A    between atoms: _87  and  _90
REMARK   35  A    between atoms: _93  and  _95
REMARK   36  A    between atoms: _95  and  _96
REMARK   37  A    between atoms: _98  and  _100
REMARK   38  A    between atoms: _100  and  _101
REMARK   39  A    between atoms: _100  and  _103
REMARK   40  A    between atoms: _106  and  _108
REMARK   41  A    between atoms: _108  and  _109
REMARK   42  A    between atoms: _108  and  _111
REMARK   43  A    between atoms: _111  and  _112
REMARK   44  A    between atoms: _118  and  _120
REMARK   45  A    between atoms: _120  and  _121
REMARK   46  A    between atoms: _120  and  _123
REMARK   47  A    between atoms: _126  and  _128
REMARK   48  A    between atoms: _128  and  _129
REMARK   49  A    between atoms: _128  and  _131
REMARK   50  A    between atoms: _131  and  _132
REMARK   51  A    between atoms: _138  and  _140
REMARK   52  A    between atoms: _140  and  _141
REMARK   53  A    between atoms: _140  and  _143
REMARK   54  A    between atoms: _143  and  _144
REMARK   55  A    between atoms: _144  and  _145
REMARK   56  A    between atoms: _147  and  _149
REMARK   57  A    between atoms: _149  and  _150
REMARK   58  A    between atoms: _149  and  _152
REMARK   59  A    between atoms: _152  and  _153
REMARK   60  A    between atoms: _156  and  _158
REMARK   61  A    between atoms: _158  and  _159
REMARK   62  A    between atoms: _158  and  _161
REMARK   63  A    between atoms: _161  and  _162
REMARK   64  A    between atoms: _162  and  _163
REMARK   65  A    between atoms: _166  and  _168
REMARK   66  A    between atoms: _168  and  _169
REMARK   67  A    between atoms: _168  and  _171
REMARK   68  A    between atoms: _171  and  _172
REMARK   69  A    between atoms: _172  and  _173
REMARK   70  A    between atoms: _176  and  _178
REMARK   71  A    between atoms: _178  and  _179
REMARK   72  A    between atoms: _178  and  _181
REMARK   73  A    between atoms: _181  and  _182
REMARK   74  A    between atoms: _187  and  _188
REMARK   75  A    between atoms: _190  and  _192
REMARK   76  A    between atoms: _192  and  _193
REMARK   77  A    between atoms: _192  and  _195
REMARK   78  A    between atoms: _195  and  _196
REMARK   79  A    between atoms: _206  and  _208
REMARK   80  A    between atoms: _208  and  _209
REMARK   81  A    between atoms: _208  and  _211
REMARK   82  A    between atoms: _211  and  _212
REMARK   83  A    between atoms: _215  and  _217
REMARK   84  A    between atoms: _217  and  _218
REMARK   85  A    between atoms: _217  and  _220
REMARK   86  A    between atoms: _220  and  _221
REMARK   87  A    between atoms: _221  and  _222
REMARK   88  A    between atoms: _222  and  _223
REMARK   89  A    between atoms: _232  and  _234
REMARK   90  A    between atoms: _234  and  _235
REMARK   91  A    between atoms: _234  and  _237
REMARK   92  A    between atoms: _237  and  _238
REMARK   93  A    between atoms: _238  and  _239
REMARK   94  A    between atoms: _242  and  _244
REMARK   95  A    between atoms: _244  and  _245
REMARK   96  A    between atoms: _244  and  _247
REMARK   97  A    between atoms: _247  and  _248
REMARK   98  A    between atoms: _251  and  _253
REMARK   99  A    between atoms: _253  and  _254
REMARK  100  A    between atoms: _253  and  _256
REMARK  101  A    between atoms: _256  and  _257
REMARK  102  A    between atoms: _257  and  _258
REMARK  103  A    between atoms: _263  and  _265
REMARK  104  A    between atoms: _265  and  _266
REMARK  105  A    between atoms: _265  and  _268
REMARK  106  A    between atoms: _268  and  _269
REMARK  107  A    between atoms: _272  and  _274
REMARK  108  A    between atoms: _274  and  _275
REMARK  109  A    between atoms: _274  and  _277
REMARK  110  A    between atoms: _277  and  _278
REMARK  111  A    between atoms: _280  and  _282
REMARK  112  A    between atoms: _282  and  _283
REMARK  113  A    between atoms: _282  and  _285
REMARK  114  A    between atoms: _285  and  _286
REMARK  115  A    between atoms: _286  and  _287
REMARK  116  A    between atoms: _287  and  _288
REMARK  117  A    between atoms: _288  and  _289
REMARK  118  A    between atoms: _293  and  _295
REMARK  119  A    between atoms: _295  and  _296
REMARK  120  A    between atoms: _295  and  _298
REMARK  121  A    between atoms: _298  and  _299
REMARK  122  A    between atoms: _302  and  _304
REMARK  123  A    between atoms: _304  and  _305
REMARK  124  A    between atoms: _304  and  _307
REMARK  125  A    between atoms: _307  and  _308
REMARK  126  A    between atoms: _313  and  _315
REMARK  127  A    between atoms: _315  and  _316
REMARK  128  A    between atoms: _315  and  _318
REMARK  129  A    between atoms: _318  and  _319
REMARK  130  A    between atoms: _319  and  _320
REMARK  131  A    between atoms: _325  and  _327
REMARK  132  A    between atoms: _327  and  _328
REMARK  133  A    between atoms: _327  and  _330
REMARK  134  A    between atoms: _330  and  _331
REMARK  135  A    between atoms: _334  and  _336
REMARK  136  A    between atoms: _336  and  _337
REMARK  137  A    between atoms: _336  and  _339
REMARK  138  A    between atoms: _339  and  _340
REMARK  139  A    between atoms: _345  and  _346
REMARK  140  A    between atoms: _348  and  _350
REMARK  141  A    between atoms: _350  and  _351
REMARK  142  A    between atoms: _350  and  _353
REMARK  143  A    between atoms: _353  and  _354
REMARK  144  A    between atoms: _354  and  _355
REMARK  145  A    between atoms: _355  and  _356
REMARK  146  A    between atoms: _365  and  _367
REMARK  147  A    between atoms: _367  and  _368
REMARK  148  A    between atoms: _367  and  _370
REMARK  149  A    between atoms: _370  and  _371
REMARK  150  A    between atoms: _371  and  _372
REMARK  151  A    between atoms: _375  and  _377
REMARK  152  A    between atoms: _377  and  _378
REMARK  153  A    between atoms: _377  and  _380
REMARK  154  A    between atoms: _380  and  _381
REMARK  155  A    between atoms: _383  and  _385
REMARK  156  A    between atoms: _385  and  _386
REMARK  157  A    between atoms: _385  and  _388
REMARK  158  A    between atoms: _388  and  _389
REMARK  159  A    between atoms: _392  and  _394
REMARK  160  A    between atoms: _394  and  _395
REMARK  161  A    between atoms: _394  and  _397
REMARK  162  A    between atoms: _397  and  _398
REMARK  163  A    between atoms: _398  and  _399
REMARK  164  A    between atoms: _399  and  _400
REMARK  165  A    between atoms: _409  and  _411
REMARK  166  A    between atoms: _411  and  _412
REMARK  167  A    between atoms: _411  and  _414
REMARK  168  A    between atoms: _414  and  _415
REMARK  169  A    between atoms: _420  and  _422
REMARK  170  A    between atoms: _422  and  _423
REMARK  171  A    between atoms: _422  and  _425
REMARK  172  A    between atoms: _425  and  _426
REMARK  173  A    between atoms: _429  and  _431
REMARK  174  A    between atoms: _431  and  _432
REMARK  175  A    between atoms: _431  and  _434
REMARK  176  A    between atoms: _434  and  _435
REMARK  177  A    between atoms: _440  and  _441
REMARK  178  A    between atoms: _443  and  _445
REMARK  179  A    between atoms: _445  and  _446
REMARK  180  A    between atoms: _445  and  _448
REMARK  181  A    between atoms: _448  and  _449
REMARK  182  A    between atoms: _452  and  _454
REMARK  183  A    between atoms: _454  and  _455
REMARK  184  A    between atoms: _454  and  _457
REMARK  185  A    between atoms: _457  and  _458
REMARK  186  A    between atoms: _458  and  _459
REMARK  187  A    between atoms: _464  and  _466
REMARK  188  A    between atoms: _466  and  _467
REMARK  189  A    between atoms: _466  and  _469
REMARK  190  A    between atoms: _469  and  _470
REMARK  191  A    between atoms: _470  and  _471
REMARK  192  A    between atoms: _471  and  _472
REMARK  193  A    between atoms: _481  and  _483
REMARK  194  A    between atoms: _483  and  _484
REMARK  195  A    between atoms: _483  and  _486
REMARK  196  A    between atoms: _486  and  _487
REMARK  197  A    between atoms: _487  and  _488
REMARK  198  A    between atoms: _490  and  _492
REMARK  199  A    between atoms: _492  and  _493
REMARK  200  A    between atoms: _492  and  _495
REMARK  201  A    between atoms: _495  and  _496
REMARK  202  A    between atoms: _501  and  _502
REMARK  203  A    between atoms: _504  and  _506
REMARK  204  A    between atoms: _506  and  _507
REMARK  205  A    between atoms: _509  and  _511
REMARK  206  A    between atoms: _511  and  _512
REMARK  207  A    between atoms: _511  and  _514
REMARK  208  A    between atoms: _514  and  _515
REMARK  209  A    between atoms: _515  and  _869
REMARK  210  A    between atoms: _516  and  _518
REMARK  211  A    between atoms: _518  and  _519
REMARK  212  A    between atoms: _518  and  _521
REMARK  213  A    between atoms: _521  and  _522
REMARK  214  A    between atoms: _525  and  _527
REMARK  215  A    between atoms: _527  and  _528
REMARK  216  A    between atoms: _527  and  _530
REMARK  217  A    between atoms: _530  and  _531
REMARK  218  A    between atoms: _531  and  _532
REMARK  219  A    between atoms: _537  and  _539
REMARK  220  A    between atoms: _539  and  _540
REMARK  221  A    between atoms: _539  and  _542
REMARK  222  A    between atoms: _542  and  _543
REMARK  223  A    between atoms: _545  and  _547
REMARK  224  A    between atoms: _547  and  _548
REMARK  225  A    between atoms: _551  and  _553
REMARK  226  A    between atoms: _553  and  _554
REMARK  227  A    between atoms: _553  and  _556
REMARK  228  A    between atoms: _556  and  _557
REMARK  229  A    between atoms: _562  and  _563
REMARK  230  A    between atoms: _565  and  _567
REMARK  231  A    between atoms: _567  and  _568
REMARK  232  A    between atoms: _567  and  _570
REMARK  233  A    between atoms: _570  and  _571
REMARK  234  A    between atoms: _576  and  _577
REMARK  235  A    between atoms: _579  and  _581
REMARK  236  A    between atoms: _581  and  _582
REMARK  237  A    between atoms: _581  and  _584
REMARK  238  A    between atoms: _584  and  _585
REMARK  239  A    between atoms: _588  and  _590
REMARK  240  A    between atoms: _590  and  _591
REMARK  241  A    between atoms: _594  and  _596
REMARK  242  A    between atoms: _596  and  _597
REMARK  243  A    between atoms: _596  and  _599
REMARK  244  A    between atoms: _599  and  _600
REMARK  245  A    between atoms: _610  and  _612
REMARK  246  A    between atoms: _612  and  _613
REMARK  247  A    between atoms: _616  and  _618
REMARK  248  A    between atoms: _618  and  _619
REMARK  249  A    between atoms: _622  and  _624
REMARK  250  A    between atoms: _624  and  _625
REMARK  251  A    between atoms: _624  and  _627
REMARK  252  A    between atoms: _627  and  _628
REMARK  253  A    between atoms: _628  and  _629
REMARK  254  A    between atoms: _634  and  _636
REMARK  255  A    between atoms: _636  and  _637
REMARK  256  A    between atoms: _636  and  _639
REMARK  257  A    between atoms: _639  and  _640
REMARK  258  A    between atoms: _643  and  _645
REMARK  259  A    between atoms: _645  and  _646
REMARK  260  A    between atoms: _645  and  _648
REMARK  261  A    between atoms: _648  and  _649
REMARK  262  A    between atoms: _652  and  _654
REMARK  263  A    between atoms: _654  and  _655
REMARK  264  A    between atoms: _654  and  _657
REMARK  265  A    between atoms: _657  and  _658
REMARK  266  A    between atoms: _658  and  _659
REMARK  267  A    between atoms: _664  and  _666
REMARK  268  A    between atoms: _666  and  _667
REMARK  269  A    between atoms: _666  and  _669
REMARK  270  A    between atoms: _669  and  _670
REMARK  271  A    between atoms: _670  and  _671
REMARK  272  A    between atoms: _671  and  _672
REMARK  273  A    between atoms: _681  and  _683
REMARK  274  A    between atoms: _683  and  _684
REMARK  275  A    between atoms: _683  and  _686
REMARK  276  A    between atoms: _686  and  _687
REMARK  277  A    between atoms: _687  and  _688
REMARK  278  A    between atoms: _688  and  _689
REMARK  279  A    between atoms: _689  and  _690
REMARK  280  A    between atoms: _694  and  _696
REMARK  281  A    between atoms: _696  and  _697
REMARK  282  A    between atoms: _696  and  _699
REMARK  283  A    between atoms: _699  and  _700
REMARK  284  A    between atoms: _710  and  _712
REMARK  285  A    between atoms: _712  and  _713
REMARK  286  A    between atoms: _712  and  _715
REMARK  287  A    between atoms: _715  and  _716
REMARK  288  A    between atoms: _716  and  _717
REMARK  289  A    between atoms: _720  and  _722
REMARK  290  A    between atoms: _722  and  _723
REMARK  291  A    between atoms: _726  and  _728
REMARK  292  A    between atoms: _728  and  _729
REMARK  293  A    between atoms: _732  and  _734
REMARK  294  A    between atoms: _734  and  _735
REMARK  295  A    between atoms: _734  and  _737
REMARK  296  A    between atoms: _737  and  _738
REMARK  297  A    between atoms: _738  and  _739
REMARK  298  A    between atoms: _739  and  _740
REMARK  299  A    between atoms: _749  and  _751
REMARK  300  A    between atoms: _751  and  _752
REMARK  301  A    between atoms: _751  and  _754
REMARK  302  A    between atoms: _754  and  _755
REMARK  303  A    between atoms: _755  and  _756
REMARK  304  A    between atoms: _759  and  _761
REMARK  305  A    between atoms: _761  and  _762
REMARK  306  A    between atoms: _765  and  _767
REMARK  307  A    between atoms: _767  and  _768
REMARK  308  A    between atoms: _767  and  _770
REMARK  309  A    between atoms: _770  and  _771
REMARK  310  A    between atoms: _771  and  _772
REMARK  311  A    between atoms: _775  and  _777
REMARK  312  A    between atoms: _777  and  _778
REMARK  313  A    between atoms: _777  and  _780
REMARK  314  A    between atoms: _780  and  _781
REMARK  315  A    between atoms: _781  and  _782
REMARK  316  A    between atoms: _787  and  _789
REMARK  317  A    between atoms: _789  and  _790
REMARK  318  A    between atoms: _789  and  _792
REMARK  319  A    between atoms: _792  and  _793
REMARK  320  A    between atoms: _803  and  _805
REMARK  321  A    between atoms: _805  and  _806
REMARK  322  A    between atoms: _805  and  _808
REMARK  323  A    between atoms: _808  and  _809
REMARK  324  A    between atoms: _809  and  _810
REMARK  325  A    between atoms: _810  and  _811
REMARK  326  A    between atoms: _820  and  _822
REMARK  327  A    between atoms: _822  and  _823
REMARK  328  A    between atoms: _826  and  _828
REMARK  329  A    between atoms: _828  and  _829
REMARK  330  A    between atoms: _828  and  _831
REMARK  331  A    between atoms: _831  and  _832
REMARK  332  A    between atoms: _837  and  _838
REMARK  333  A    between atoms: _840  and  _842
REMARK  334  A    between atoms: _842  and  _843
REMARK  335  A    between atoms: _842  and  _845
REMARK  336  A    between atoms: _845  and  _846
REMARK  337  A    between atoms: _849  and  _851
REMARK  338  A    between atoms: _851  and  _852
REMARK  339  A    between atoms: _854  and  _856
REMARK  340  A    between atoms: _856  and  _857
REMARK  341  A    between atoms: _856  and  _859
REMARK  342  A    between atoms: _859  and  _860
REMARK  343  A    between atoms: _863  and  _865
REMARK  344  A    between atoms: _865  and  _866
REMARK  345  A    between atoms: _865  and  _868
REMARK  346  A    between atoms: _868  and  _869
REMARK  347  A    between atoms: _870  and  _872
REMARK  348  A    between atoms: _872  and  _873
REMARK  349  A    between atoms: _872  and  _875
REMARK  350  A    between atoms: _878  and  _880
REMARK  351  A    between atoms: _880  and  _881
REMARK  352  A    between atoms: _880  and  _883
REMARK  353  A    between atoms: _883  and  _884
REMARK  354  A    between atoms: _884  and  _885
REMARK  355  A    between atoms: _888  and  _890
REMARK  356  A    between atoms: _890  and  _891
REMARK  357  A    between atoms: _890  and  _893
REMARK  358  A    between atoms: _893  and  _894
REMARK  359  A    between atoms: _904  and  _906
REMARK  360  A    between atoms: _906  and  _907
REMARK  361  A    between atoms: _906  and  _909
REMARK  362  A    between atoms: _909  and  _910
REMARK  363  A    between atoms: _913  and  _915
REMARK  364  A    between atoms: _915  and  _916
REMARK  365  A    between atoms: _915  and  _918
REMARK  366  A    between atoms: _918  and  _919
REMARK  367  A    between atoms: _919  and  _920
REMARK  368  A    between atoms: _920  and  _921
REMARK  369  A    between atoms: _930  and  _932
REMARK  370  A    between atoms: _932  and  _933
REMARK  371  A    between atoms: _932  and  _935
REMARK  372  A    between atoms: _935  and  _936
REMARK  373  A    between atoms: _941  and  _942
REMARK  374  A    between atoms: _944  and  _946
REMARK  375  A    between atoms: _946  and  _947
REMARK  376  A    between atoms: _946  and  _949
REMARK  377  A    between atoms: _949  and  _950
REMARK                            x       y       z     vdW  Elec       q    Type
REMARK                         _______ _______ _______ _____ _____    ______ ____
ROOT
ATOM      1  O   HOH     1      14.009  24.496  45.091  0.00  0.00    +0.000 OA
ENDROOT
TORSDOF 0
REMARK  Name = ../refined-set-2016/1xr9/1xr9_pocket.pdb
REMARK  377 active torsions:
REMARK  status: ('A' for Active; 'I' for Inactive)
REMARK    1  A    between atoms: _1  and  _3
REMARK    2  A    between atoms: _3  and  _4
REMARK    3  A    between atoms: _3  and  _6
REMARK    4  A    between atoms: _6  and  _7
REMARK    5  A    between atoms: _7  and  _8
REMARK    6  A    between atoms: _10  and  _12
REMARK    7  A    between atoms: _12  and  _13
REMARK    8  A    between atoms: _12  and  _15
REMARK    9  A    between atoms: _15  and  _16
REMARK   10  A    between atoms: _16  and  _17
REMARK   11  A    between atoms: _17  and  _18
REMARK   12  A    between atoms: _27  and  _29
REMARK   13  A    between atoms: _29  and  _30
REMARK   14  A    between atoms: _29  and  _32
REMARK   15  A    between atoms: _32  and  _33
REMARK   16  A    between atoms: _38  and  _39
REMARK   17  A    between atoms: _41  and  _43
REMARK   18  A    between atoms: _43  and  _44
REMARK   19  A    between atoms: _43  and  _46
REMARK   20  A    between atoms: _46  and  _47
REMARK   21  A    between atoms: _53  and  _55
REMARK   22  A    between atoms: _55  and  _56
REMARK   23  A    between atoms: _55  and  _58
REMARK   24  A    between atoms: _58  and  _59
REMARK   25  A    between atoms: _64  and  _65
REMARK   26  A    between atoms: _67  and  _69
REMARK   27  A    between atoms: _69  and  _70
REMARK   28  A    between atoms: _69  and  _72
REMARK   29  A    between atoms: _72  and  _73
REMARK   30  A    between atoms: _79  and  _81
REMARK   31  A    between atoms: _81  and  _82
REMARK   32  A    between atoms: _85  and  _87
REMARK   33  A    between atoms: _87  and  _88
REMARK   34  A    between atoms: _87  and  _90
REMARK   35  A    between atoms: _93  and  _95
REMARK   36  A    between atoms: _95  and  _96
REMARK   37  A    between atoms: _98  and  _100
REMARK   38  A    between atoms: _100  and  _101
REMARK   39  A    between atoms: _100  and  _103
REMARK   40  A    between atoms: _106  and  _108
REMARK   41  A    between atoms: _108  and  _109
REMARK   42  A    between atoms: _108  and  _111
REMARK   43  A    between atoms: _111  and  _112
REMARK   44  A    between atoms: _118  and  _120
REMARK   45  A    between atoms: _120  and  _121
REMARK   46  A    between atoms: _120  and  _123
REMARK   47  A    between atoms: _126  and  _128
REMARK   48  A    between atoms: _128  and  _129
REMARK   49  A    between atoms: _128  and  _131
REMARK   50  A    between atoms: _131  and  _132
REMARK   51  A    between atoms: _138  and  _140
REMARK   52  A    between atoms: _140  and  _141
REMARK   53  A    between atoms: _140  and  _143
REMARK   54  A    between atoms: _143  and  _144
REMARK   55  A    between atoms: _144  and  _145
REMARK   56  A    between atoms: _147  and  _149
REMARK   57  A    between atoms: _149  and  _150
REMARK   58  A    between atoms: _149  and  _152
REMARK   59  A    between atoms: _152  and  _153
REMARK   60  A    between atoms: _156  and  _158
REMARK   61  A    between atoms: _158  and  _159
REMARK   62  A    between atoms: _158  and  _161
REMARK   63  A    between atoms: _161  and  _162
REMARK   64  A    between atoms: _162  and  _163
REMARK   65  A    between atoms: _166  and  _168
REMARK   66  A    between atoms: _168  and  _169
REMARK   67  A    between atoms: _168  and  _171
REMARK   68  A    between atoms: _171  and  _172
REMARK   69  A    between atoms: _172  and  _173
REMARK   70  A    between atoms: _176  and  _178
REMARK   71  A    between atoms: _178  and  _179
REMARK   72  A    between atoms: _178  and  _181
REMARK   73  A    between atoms: _181  and  _182
REMARK   74  A    between atoms: _187  and  _188
REMARK   75  A    between atoms: _190  and  _192
REMARK   76  A    between atoms: _192  and  _193
REMARK   77  A    between atoms: _192  and  _195
REMARK   78  A    between atoms: _195  and  _196
REMARK   79  A    between atoms: _206  and  _208
REMARK   80  A    between atoms: _208  and  _209
REMARK   81  A    between atoms: _208  and  _211
REMARK   82  A    between atoms: _211  and  _212
REMARK   83  A    between atoms: _215  and  _217
REMARK   84  A    between atoms: _217  and  _218
REMARK   85  A    between atoms: _217  and  _220
REMARK   86  A    between atoms: _220  and  _221
REMARK   87  A    between atoms: _221  and  _222
REMARK   88  A    between atoms: _222  and  _223
REMARK   89  A    between atoms: _232  and  _234
REMARK   90  A    between atoms: _234  and  _235
REMARK   91  A    between atoms: _234  and  _237
REMARK   92  A    between atoms: _237  and  _238
REMARK   93  A    between atoms: _238  and  _239
REMARK   94  A    between atoms: _242  and  _244
REMARK   95  A    between atoms: _244  and  _245
REMARK   96  A    between atoms: _244  and  _247
REMARK   97  A    between atoms: _247  and  _248
REMARK   98  A    between atoms: _251  and  _253
REMARK   99  A    between atoms: _253  and  _254
REMARK  100  A    between atoms: _253  and  _256
REMARK  101  A    between atoms: _256  and  _257
REMARK  102  A    between atoms: _257  and  _258
REMARK  103  A    between atoms: _263  and  _265
REMARK  104  A    between atoms: _265  and  _266
REMARK  105  A    between atoms: _265  and  _268
REMARK  106  A    between atoms: _268  and  _269
REMARK  107  A    between atoms: _272  and  _274
REMARK  108  A    between atoms: _274  and  _275
REMARK  109  A    between atoms: _274  and  _277
REMARK  110  A    between atoms: _277  and  _278
REMARK  111  A    between atoms: _280  and  _282
REMARK  112  A    between atoms: _282  and  _283
REMARK  113  A    between atoms: _282  and  _285
REMARK  114  A    between atoms: _285  and  _286
REMARK  115  A    between atoms: _286  and  _287
REMARK  116  A    between atoms: _287  and  _288
REMARK  117  A    between atoms: _288  and  _289
REMARK  118  A    between atoms: _293  and  _295
REMARK  119  A    between atoms: _295  and  _296
REMARK  120  A    between atoms: _295  and  _298
REMARK  121  A    between atoms: _298  and  _299
REMARK  122  A    between atoms: _302  and  _304
REMARK  123  A    between atoms: _304  and  _305
REMARK  124  A    between atoms: _304  and  _307
REMARK  125  A    between atoms: _307  and  _308
REMARK  126  A    between atoms: _313  and  _315
REMARK  127  A    between atoms: _315  and  _316
REMARK  128  A    between atoms: _315  and  _318
REMARK  129  A    between atoms: _318  and  _319
REMARK  130  A    between atoms: _319  and  _320
REMARK  131  A    between atoms: _325  and  _327
REMARK  132  A    between atoms: _327  and  _328
REMARK  133  A    between atoms: _327  and  _330
REMARK  134  A    between atoms: _330  and  _331
REMARK  135  A    between atoms: _334  and  _336
REMARK  136  A    between atoms: _336  and  _337
REMARK  137  A    between atoms: _336  and  _339
REMARK  138  A    between atoms: _339  and  _340
REMARK  139  A    between atoms: _345  and  _346
REMARK  140  A    between atoms: _348  and  _350
REMARK  141  A    between atoms: _350  and  _351
REMARK  142  A    between atoms: _350  and  _353
REMARK  143  A    between atoms: _353  and  _354
REMARK  144  A    between atoms: _354  and  _355
REMARK  145  A    between atoms: _355  and  _356
REMARK  146  A    between atoms: _365  and  _367
REMARK  147  A    between atoms: _367  and  _368
REMARK  148  A    between atoms: _367  and  _370
REMARK  149  A    between atoms: _370  and  _371
REMARK  150  A    between atoms: _371  and  _372
REMARK  151  A    between atoms: _375  and  _377
REMARK  152  A    between atoms: _377  and  _378
REMARK  153  A    between atoms: _377  and  _380
REMARK  154  A    between atoms: _380  and  _381
REMARK  155  A    between atoms: _383  and  _385
REMARK  156  A    between atoms: _385  and  _386
REMARK  157  A    between atoms: _385  and  _388
REMARK  158  A    between atoms: _388  and  _389
REMARK  159  A    between atoms: _392  and  _394
REMARK  160  A    between atoms: _394  and  _395
REMARK  161  A    between atoms: _394  and  _397
REMARK  162  A    between atoms: _397  and  _398
REMARK  163  A    between atoms: _398  and  _399
REMARK  164  A    between atoms: _399  and  _400
REMARK  165  A    between atoms: _409  and  _411
REMARK  166  A    between atoms: _411  and  _412
REMARK  167  A    between atoms: _411  and  _414
REMARK  168  A    between atoms: _414  and  _415
REMARK  169  A    between atoms: _420  and  _422
REMARK  170  A    between atoms: _422  and  _423
REMARK  171  A    between atoms: _422  and  _425
REMARK  172  A    between atoms: _425  and  _426
REMARK  173  A    between atoms: _429  and  _431
REMARK  174  A    between atoms: _431  and  _432
REMARK  175  A    between atoms: _431  and  _434
REMARK  176  A    between atoms: _434  and  _435
REMARK  177  A    between atoms: _440  and  _441
REMARK  178  A    between atoms: _443  and  _445
REMARK  179  A    between atoms: _445  and  _446
REMARK  180  A    between atoms: _445  and  _448
REMARK  181  A    between atoms: _448  and  _449
REMARK  182  A    between atoms: _452  and  _454
REMARK  183  A    between atoms: _454  and  _455
REMARK  184  A    between atoms: _454  and  _457
REMARK  185  A    between atoms: _457  and  _458
REMARK  186  A    between atoms: _458  and  _459
REMARK  187  A    between atoms: _464  and  _466
REMARK  188  A    between atoms: _466  and  _467
REMARK  189  A    between atoms: _466  and  _469
REMARK  190  A    between atoms: _469  and  _470
REMARK  191  A    between atoms: _470  and  _471
REMARK  192  A    between atoms: _471  and  _472
REMARK  193  A    between atoms: _481  and  _483
REMARK  194  A    between atoms: _483  and  _484
REMARK  195  A    between atoms: _483  and  _486
REMARK  196  A    between atoms: _486  and  _487
REMARK  197  A    between atoms: _487  and  _488
REMARK  198  A    between atoms: _490  and  _492
REMARK  199  A    between atoms: _492  and  _493
REMARK  200  A    between atoms: _492  and  _495
REMARK  201  A    between atoms: _495  and  _496
REMARK  202  A    between atoms: _501  and  _502
REMARK  203  A    between atoms: _504  and  _506
REMARK  204  A    between atoms: _506  and  _507
REMARK  205  A    between atoms: _509  and  _511
REMARK  206  A    between atoms: _511  and  _512
REMARK  207  A    between atoms: _511  and  _514
REMARK  208  A    between atoms: _514  and  _515
REMARK  209  A    between atoms: _515  and  _869
REMARK  210  A    between atoms: _516  and  _518
REMARK  211  A    between atoms: _518  and  _519
REMARK  212  A    between atoms: _518  and  _521
REMARK  213  A    between atoms: _521  and  _522
REMARK  214  A    between atoms: _525  and  _527
REMARK  215  A    between atoms: _527  and  _528
REMARK  216  A    between atoms: _527  and  _530
REMARK  217  A    between atoms: _530  and  _531
REMARK  218  A    between atoms: _531  and  _532
REMARK  219  A    between atoms: _537  and  _539
REMARK  220  A    between atoms: _539  and  _540
REMARK  221  A    between atoms: _539  and  _542
REMARK  222  A    between atoms: _542  and  _543
REMARK  223  A    between atoms: _545  and  _547
REMARK  224  A    between atoms: _547  and  _548
REMARK  225  A    between atoms: _551  and  _553
REMARK  226  A    between atoms: _553  and  _554
REMARK  227  A    between atoms: _553  and  _556
REMARK  228  A    between atoms: _556  and  _557
REMARK  229  A    between atoms: _562  and  _563
REMARK  230  A    between atoms: _565  and  _567
REMARK  231  A    between atoms: _567  and  _568
REMARK  232  A    between atoms: _567  and  _570
REMARK  233  A    between atoms: _570  and  _571
REMARK  234  A    between atoms: _576  and  _577
REMARK  235  A    between atoms: _579  and  _581
REMARK  236  A    between atoms: _581  and  _582
REMARK  237  A    between atoms: _581  and  _584
REMARK  238  A    between atoms: _584  and  _585
REMARK  239  A    between atoms: _588  and  _590
REMARK  240  A    between atoms: _590  and  _591
REMARK  241  A    between atoms: _594  and  _596
REMARK  242  A    between atoms: _596  and  _597
REMARK  243  A    between atoms: _596  and  _599
REMARK  244  A    between atoms: _599  and  _600
REMARK  245  A    between atoms: _610  and  _612
REMARK  246  A    between atoms: _612  and  _613
REMARK  247  A    between atoms: _616  and  _618
REMARK  248  A    between atoms: _618  and  _619
REMARK  249  A    between atoms: _622  and  _624
REMARK  250  A    between atoms: _624  and  _625
REMARK  251  A    between atoms: _624  and  _627
REMARK  252  A    between atoms: _627  and  _628
REMARK  253  A    between atoms: _628  and  _629
REMARK  254  A    between atoms: _634  and  _636
REMARK  255  A    between atoms: _636  and  _637
REMARK  256  A    between atoms: _636  and  _639
REMARK  257  A    between atoms: _639  and  _640
REMARK  258  A    between atoms: _643  and  _645
REMARK  259  A    between atoms: _645  and  _646
REMARK  260  A    between atoms: _645  and  _648
REMARK  261  A    between atoms: _648  and  _649
REMARK  262  A    between atoms: _652  and  _654
REMARK  263  A    between atoms: _654  and  _655
REMARK  264  A    between atoms: _654  and  _657
REMARK  265  A    between atoms: _657  and  _658
REMARK  266  A    between atoms: _658  and  _659
REMARK  267  A    between atoms: _664  and  _666
REMARK  268  A    between atoms: _666  and  _667
REMARK  269  A    between atoms: _666  and  _669
REMARK  270  A    between atoms: _669  and  _670
REMARK  271  A    between atoms: _670  and  _671
REMARK  272  A    between atoms: _671  and  _672
REMARK  273  A    between atoms: _681  and  _683
REMARK  274  A    between atoms: _683  and  _684
REMARK  275  A    between atoms: _683  and  _686
REMARK  276  A    between atoms: _686  and  _687
REMARK  277  A    between atoms: _687  and  _688
REMARK  278  A    between atoms: _688  and  _689
REMARK  279  A    between atoms: _689  and  _690
REMARK  280  A    between atoms: _694  and  _696
REMARK  281  A    between atoms: _696  and  _697
REMARK  282  A    between atoms: _696  and  _699
REMARK  283  A    between atoms: _699  and  _700
REMARK  284  A    between atoms: _710  and  _712
REMARK  285  A    between atoms: _712  and  _713
REMARK  286  A    between atoms: _712  and  _715
REMARK  287  A    between atoms: _715  and  _716
REMARK  288  A    between atoms: _716  and  _717
REMARK  289  A    between atoms: _720  and  _722
REMARK  290  A    between atoms: _722  and  _723
REMARK  291  A    between atoms: _726  and  _728
REMARK  292  A    between atoms: _728  and  _729
REMARK  293  A    between atoms: _732  and  _734
REMARK  294  A    between atoms: _734  and  _735
REMARK  295  A    between atoms: _734  and  _737
REMARK  296  A    between atoms: _737  and  _738
REMARK  297  A    between atoms: _738  and  _739
REMARK  298  A    between atoms: _739  and  _740
REMARK  299  A    between atoms: _749  and  _751
REMARK  300  A    between atoms: _751  and  _752
REMARK  301  A    between atoms: _751  and  _754
REMARK  302  A    between atoms: _754  and  _755
REMARK  303  A    between atoms: _755  and  _756
REMARK  304  A    between atoms: _759  and  _761
REMARK  305  A    between atoms: _761  and  _762
REMARK  306  A    between atoms: _765  and  _767
REMARK  307  A    between atoms: _767  and  _768
REMARK  308  A    between atoms: _767  and  _770
REMARK  309  A    between atoms: _770  and  _771
REMARK  310  A    between atoms: _771  and  _772
REMARK  311  A    between atoms: _775  and  _777
REMARK  312  A    between atoms: _777  and  _778
REMARK  313  A    between atoms: _777  and  _780
REMARK  314  A    between atoms: _780  and  _781
REMARK  315  A    between atoms: _781  and  _782
REMARK  316  A    between atoms: _787  and  _789
REMARK  317  A    between atoms: _789  and  _790
REMARK  318  A    between atoms: _789  and  _792
REMARK  319  A    between atoms: _792  and  _793
REMARK  320  A    between atoms: _803  and  _805
REMARK  321  A    between atoms: _805  and  _806
REMARK  322  A    between atoms: _805  and  _808
REMARK  323  A    between atoms: _808  and  _809
REMARK  324  A    between atoms: _809  and  _810
REMARK  325  A    between atoms: _810  and  _811
REMARK  326  A    between atoms: _820  and  _822
REMARK  327  A    between atoms: _822  and  _823
REMARK  328  A    between atoms: _826  and  _828
REMARK  329  A    between atoms: _828  and  _829
REMARK  330  A    between atoms: _828  and  _831
REMARK  331  A    between atoms: _831  and  _832
REMARK  332  A    between atoms: _837  and  _838
REMARK  333  A    between atoms: _840  and  _842
REMARK  334  A    between atoms: _842  and  _843
REMARK  335  A    between atoms: _842  and  _845
REMARK  336  A    between atoms: _845  and  _846
REMARK  337  A    between atoms: _849  and  _851
REMARK  338  A    between atoms: _851  and  _852
REMARK  339  A    between atoms: _854  and  _856
REMARK  340  A    between atoms: _856  and  _857
REMARK  341  A    between atoms: _856  and  _859
REMARK  342  A    between atoms: _859  and  _860
REMARK  343  A    between atoms: _863  and  _865
REMARK  344  A    between atoms: _865  and  _866
REMARK  345  A    between atoms: _865  and  _868
REMARK  346  A    between atoms: _868  and  _869
REMARK  347  A    between atoms: _870  and  _872
REMARK  348  A    between atoms: _872  and  _873
REMARK  349  A    between atoms: _872  and  _875
REMARK  350  A    between atoms: _878  and  _880
REMARK  351  A    between atoms: _880  and  _881
REMARK  352  A    between atoms: _880  and  _883
REMARK  353  A    between atoms: _883  and  _884
REMARK  354  A    between atoms: _884  and  _885
REMARK  355  A    between atoms: _888  and  _890
REMARK  356  A    between atoms: _890  and  _891
REMARK  357  A    between atoms: _890  and  _893
REMARK  358  A    between atoms: _893  and  _894
REMARK  359  A    between atoms: _904  and  _906
REMARK  360  A    between atoms: _906  and  _907
REMARK  361  A    between atoms: _906  and  _909
REMARK  362  A    between atoms: _909  and  _910
REMARK  363  A    between atoms: _913  and  _915
REMARK  364  A    between atoms: _915  and  _916
REMARK  365  A    between atoms: _915  and  _918
REMARK  366  A    between atoms: _918  and  _919
REMARK  367  A    between atoms: _919  and  _920
REMARK  368  A    between atoms: _920  and  _921
REMARK  369  A    between atoms: _930  and  _932
REMARK  370  A    between atoms: _932  and  _933
REMARK  371  A    between atoms: _932  and  _935
REMARK  372  A    between atoms: _935  and  _936
REMARK  373  A    between atoms: _941  and  _942
REMARK  374  A    between atoms: _944  and  _946
REMARK  375  A    between atoms: _946  and  _947
REMARK  376  A    between atoms: _946  and  _949
REMARK  377  A    between atoms: _949  and  _950
REMARK                            x       y       z     vdW  Elec       q    Type
REMARK                         _______ _______ _______ _____ _____    ______ ____
ROOT
ATOM      1  O   HOH     1      21.447  27.523  43.395  0.00  0.00    +0.000 OA
ENDROOT
TORSDOF 0
REMARK  Name = ../refined-set-2016/1xr9/1xr9_pocket.pdb
REMARK  377 active torsions:
REMARK  status: ('A' for Active; 'I' for Inactive)
REMARK    1  A    between atoms: _1  and  _3
REMARK    2  A    between atoms: _3  and  _4
REMARK    3  A    between atoms: _3  and  _6
REMARK    4  A    between atoms: _6  and  _7
REMARK    5  A    between atoms: _7  and  _8
REMARK    6  A    between atoms: _10  and  _12
REMARK    7  A    between atoms: _12  and  _13
REMARK    8  A    between atoms: _12  and  _15
REMARK    9  A    between atoms: _15  and  _16
REMARK   10  A    between atoms: _16  and  _17
REMARK   11  A    between atoms: _17  and  _18
REMARK   12  A    between atoms: _27  and  _29
REMARK   13  A    between atoms: _29  and  _30
REMARK   14  A    between atoms: _29  and  _32
REMARK   15  A    between atoms: _32  and  _33
REMARK   16  A    between atoms: _38  and  _39
REMARK   17  A    between atoms: _41  and  _43
REMARK   18  A    between atoms: _43  and  _44
REMARK   19  A    between atoms: _43  and  _46
REMARK   20  A    between atoms: _46  and  _47
REMARK   21  A    between atoms: _53  and  _55
REMARK   22  A    between atoms: _55  and  _56
REMARK   23  A    between atoms: _55  and  _58
REMARK   24  A    between atoms: _58  and  _59
REMARK   25  A    between atoms: _64  and  _65
REMARK   26  A    between atoms: _67  and  _69
REMARK   27  A    between atoms: _69  and  _70
REMARK   28  A    between atoms: _69  and  _72
REMARK   29  A    between atoms: _72  and  _73
REMARK   30  A    between atoms: _79  and  _81
REMARK   31  A    between atoms: _81  and  _82
REMARK   32  A    between atoms: _85  and  _87
REMARK   33  A    between atoms: _87  and  _88
REMARK   34  A    between atoms: _87  and  _90
REMARK   35  A    between atoms: _93  and  _95
REMARK   36  A    between atoms: _95  and  _96
REMARK   37  A    between atoms: _98  and  _100
REMARK   38  A    between atoms: _100  and  _101
REMARK   39  A    between atoms: _100  and  _103
REMARK   40  A    between atoms: _106  and  _108
REMARK   41  A    between atoms: _108  and  _109
REMARK   42  A    between atoms: _108  and  _111
REMARK   43  A    between atoms: _111  and  _112
REMARK   44  A    between atoms: _118  and  _120
REMARK   45  A    between atoms: _120  and  _121
REMARK   46  A    between atoms: _120  and  _123
REMARK   47  A    between atoms: _126  and  _128
REMARK   48  A    between atoms: _128  and  _129
REMARK   49  A    between atoms: _128  and  _131
REMARK   50  A    between atoms: _131  and  _132
REMARK   51  A    between atoms: _138  and  _140
REMARK   52  A    between atoms: _140  and  _141
REMARK   53  A    between atoms: _140  and  _143
REMARK   54  A    between atoms: _143  and  _144
REMARK   55  A    between atoms: _144  and  _145
REMARK   56  A    between atoms: _147  and  _149
REMARK   57  A    between atoms: _149  and  _150
REMARK   58  A    between atoms: _149  and  _152
REMARK   59  A    between atoms: _152  and  _153
REMARK   60  A    between atoms: _156  and  _158
REMARK   61  A    between atoms: _158  and  _159
REMARK   62  A    between atoms: _158  and  _161
REMARK   63  A    between atoms: _161  and  _162
REMARK   64  A    between atoms: _162  and  _163
REMARK   65  A    between atoms: _166  and  _168
REMARK   66  A    between atoms: _168  and  _169
REMARK   67  A    between atoms: _168  and  _171
REMARK   68  A    between atoms: _171  and  _172
REMARK   69  A    between atoms: _172  and  _173
REMARK   70  A    between atoms: _176  and  _178
REMARK   71  A    between atoms: _178  and  _179
REMARK   72  A    between atoms: _178  and  _181
REMARK   73  A    between atoms: _181  and  _182
REMARK   74  A    between atoms: _187  and  _188
REMARK   75  A    between atoms: _190  and  _192
REMARK   76  A    between atoms: _192  and  _193
REMARK   77  A    between atoms: _192  and  _195
REMARK   78  A    between atoms: _195  and  _196
REMARK   79  A    between atoms: _206  and  _208
REMARK   80  A    between atoms: _208  and  _209
REMARK   81  A    between atoms: _208  and  _211
REMARK   82  A    between atoms: _211  and  _212
REMARK   83  A    between atoms: _215  and  _217
REMARK   84  A    between atoms: _217  and  _218
REMARK   85  A    between atoms: _217  and  _220
REMARK   86  A    between atoms: _220  and  _221
REMARK   87  A    between atoms: _221  and  _222
REMARK   88  A    between atoms: _222  and  _223
REMARK   89  A    between atoms: _232  and  _234
REMARK   90  A    between atoms: _234  and  _235
REMARK   91  A    between atoms: _234  and  _237
REMARK   92  A    between atoms: _237  and  _238
REMARK   93  A    between atoms: _238  and  _239
REMARK   94  A    between atoms: _242  and  _244
REMARK   95  A    between atoms: _244  and  _245
REMARK   96  A    between atoms: _244  and  _247
REMARK   97  A    between atoms: _247  and  _248
REMARK   98  A    between atoms: _251  and  _253
REMARK   99  A    between atoms: _253  and  _254
REMARK  100  A    between atoms: _253  and  _256
REMARK  101  A    between atoms: _256  and  _257
REMARK  102  A    between atoms: _257  and  _258
REMARK  103  A    between atoms: _263  and  _265
REMARK  104  A    between atoms: _265  and  _266
REMARK  105  A    between atoms: _265  and  _268
REMARK  106  A    between atoms: _268  and  _269
REMARK  107  A    between atoms: _272  and  _274
REMARK  108  A    between atoms: _274  and  _275
REMARK  109  A    between atoms: _274  and  _277
REMARK  110  A    between atoms: _277  and  _278
REMARK  111  A    between atoms: _280  and  _282
REMARK  112  A    between atoms: _282  and  _283
REMARK  113  A    between atoms: _282  and  _285
REMARK  114  A    between atoms: _285  and  _286
REMARK  115  A    between atoms: _286  and  _287
REMARK  116  A    between atoms: _287  and  _288
REMARK  117  A    between atoms: _288  and  _289
REMARK  118  A    between atoms: _293  and  _295
REMARK  119  A    between atoms: _295  and  _296
REMARK  120  A    between atoms: _295  and  _298
REMARK  121  A    between atoms: _298  and  _299
REMARK  122  A    between atoms: _302  and  _304
REMARK  123  A    between atoms: _304  and  _305
REMARK  124  A    between atoms: _304  and  _307
REMARK  125  A    between atoms: _307  and  _308
REMARK  126  A    between atoms: _313  and  _315
REMARK  127  A    between atoms: _315  and  _316
REMARK  128  A    between atoms: _315  and  _318
REMARK  129  A    between atoms: _318  and  _319
REMARK  130  A    between atoms: _319  and  _320
REMARK  131  A    between atoms: _325  and  _327
REMARK  132  A    between atoms: _327  and  _328
REMARK  133  A    between atoms: _327  and  _330
REMARK  134  A    between atoms: _330  and  _331
REMARK  135  A    between atoms: _334  and  _336
REMARK  136  A    between atoms: _336  and  _337
REMARK  137  A    between atoms: _336  and  _339
REMARK  138  A    between atoms: _339  and  _340
REMARK  139  A    between atoms: _345  and  _346
REMARK  140  A    between atoms: _348  and  _350
REMARK  141  A    between atoms: _350  and  _351
REMARK  142  A    between atoms: _350  and  _353
REMARK  143  A    between atoms: _353  and  _354
REMARK  144  A    between atoms: _354  and  _355
REMARK  145  A    between atoms: _355  and  _356
REMARK  146  A    between atoms: _365  and  _367
REMARK  147  A    between atoms: _367  and  _368
REMARK  148  A    between atoms: _367  and  _370
REMARK  149  A    between atoms: _370  and  _371
REMARK  150  A    between atoms: _371  and  _372
REMARK  151  A    between atoms: _375  and  _377
REMARK  152  A    between atoms: _377  and  _378
REMARK  153  A    between atoms: _377  and  _380
REMARK  154  A    between atoms: _380  and  _381
REMARK  155  A    between atoms: _383  and  _385
REMARK  156  A    between atoms: _385  and  _386
REMARK  157  A    between atoms: _385  and  _388
REMARK  158  A    between atoms: _388  and  _389
REMARK  159  A    between atoms: _392  and  _394
REMARK  160  A    between atoms: _394  and  _395
REMARK  161  A    between atoms: _394  and  _397
REMARK  162  A    between atoms: _397  and  _398
REMARK  163  A    between atoms: _398  and  _399
REMARK  164  A    between atoms: _399  and  _400
REMARK  165  A    between atoms: _409  and  _411
REMARK  166  A    between atoms: _411  and  _412
REMARK  167  A    between atoms: _411  and  _414
REMARK  168  A    between atoms: _414  and  _415
REMARK  169  A    between atoms: _420  and  _422
REMARK  170  A    between atoms: _422  and  _423
REMARK  171  A    between atoms: _422  and  _425
REMARK  172  A    between atoms: _425  and  _426
REMARK  173  A    between atoms: _429  and  _431
REMARK  174  A    between atoms: _431  and  _432
REMARK  175  A    between atoms: _431  and  _434
REMARK  176  A    between atoms: _434  and  _435
REMARK  177  A    between atoms: _440  and  _441
REMARK  178  A    between atoms: _443  and  _445
REMARK  179  A    between atoms: _445  and  _446
REMARK  180  A    between atoms: _445  and  _448
REMARK  181  A    between atoms: _448  and  _449
REMARK  182  A    between atoms: _452  and  _454
REMARK  183  A    between atoms: _454  and  _455
REMARK  184  A    between atoms: _454  and  _457
REMARK  185  A    between atoms: _457  and  _458
REMARK  186  A    between atoms: _458  and  _459
REMARK  187  A    between atoms: _464  and  _466
REMARK  188  A    between atoms: _466  and  _467
REMARK  189  A    between atoms: _466  and  _469
REMARK  190  A    between atoms: _469  and  _470
REMARK  191  A    between atoms: _470  and  _471
REMARK  192  A    between atoms: _471  and  _472
REMARK  193  A    between atoms: _481  and  _483
REMARK  194  A    between atoms: _483  and  _484
REMARK  195  A    between atoms: _483  and  _486
REMARK  196  A    between atoms: _486  and  _487
REMARK  197  A    between atoms: _487  and  _488
REMARK  198  A    between atoms: _490  and  _492
REMARK  199  A    between atoms: _492  and  _493
REMARK  200  A    between atoms: _492  and  _495
REMARK  201  A    between atoms: _495  and  _496
REMARK  202  A    between atoms: _501  and  _502
REMARK  203  A    between atoms: _504  and  _506
REMARK  204  A    between atoms: _506  and  _507
REMARK  205  A    between atoms: _509  and  _511
REMARK  206  A    between atoms: _511  and  _512
REMARK  207  A    between atoms: _511  and  _514
REMARK  208  A    between atoms: _514  and  _515
REMARK  209  A    between atoms: _515  and  _869
REMARK  210  A    between atoms: _516  and  _518
REMARK  211  A    between atoms: _518  and  _519
REMARK  212  A    between atoms: _518  and  _521
REMARK  213  A    between atoms: _521  and  _522
REMARK  214  A    between atoms: _525  and  _527
REMARK  215  A    between atoms: _527  and  _528
REMARK  216  A    between atoms: _527  and  _530
REMARK  217  A    between atoms: _530  and  _531
REMARK  218  A    between atoms: _531  and  _532
REMARK  219  A    between atoms: _537  and  _539
REMARK  220  A    between atoms: _539  and  _540
REMARK  221  A    between atoms: _539  and  _542
REMARK  222  A    between atoms: _542  and  _543
REMARK  223  A    between atoms: _545  and  _547
REMARK  224  A    between atoms: _547  and  _548
REMARK  225  A    between atoms: _551  and  _553
REMARK  226  A    between atoms: _553  and  _554
REMARK  227  A    between atoms: _553  and  _556
REMARK  228  A    between atoms: _556  and  _557
REMARK  229  A    between atoms: _562  and  _563
REMARK  230  A    between atoms: _565  and  _567
REMARK  231  A    between atoms: _567  and  _568
REMARK  232  A    between atoms: _567  and  _570
REMARK  233  A    between atoms: _570  and  _571
REMARK  234  A    between atoms: _576  and  _577
REMARK  235  A    between atoms: _579  and  _581
REMARK  236  A    between atoms: _581  and  _582
REMARK  237  A    between atoms: _581  and  _584
REMARK  238  A    between atoms: _584  and  _585
REMARK  239  A    between atoms: _588  and  _590
REMARK  240  A    between atoms: _590  and  _591
REMARK  241  A    between atoms: _594  and  _596
REMARK  242  A    between atoms: _596  and  _597
REMARK  243  A    between atoms: _596  and  _599
REMARK  244  A    between atoms: _599  and  _600
REMARK  245  A    between atoms: _610  and  _612
REMARK  246  A    between atoms: _612  and  _613
REMARK  247  A    between atoms: _616  and  _618
REMARK  248  A    between atoms: _618  and  _619
REMARK  249  A    between atoms: _622  and  _624
REMARK  250  A    between atoms: _624  and  _625
REMARK  251  A    between atoms: _624  and  _627
REMARK  252  A    between atoms: _627  and  _628
REMARK  253  A    between atoms: _628  and  _629
REMARK  254  A    between atoms: _634  and  _636
REMARK  255  A    between atoms: _636  and  _637
REMARK  256  A    between atoms: _636  and  _639
REMARK  257  A    between atoms: _639  and  _640
REMARK  258  A    between atoms: _643  and  _645
REMARK  259  A    between atoms: _645  and  _646
REMARK  260  A    between atoms: _645  and  _648
REMARK  261  A    between atoms: _648  and  _649
REMARK  262  A    between atoms: _652  and  _654
REMARK  263  A    between atoms: _654  and  _655
REMARK  264  A    between atoms: _654  and  _657
REMARK  265  A    between atoms: _657  and  _658
REMARK  266  A    between atoms: _658  and  _659
REMARK  267  A    between atoms: _664  and  _666
REMARK  268  A    between atoms: _666  and  _667
REMARK  269  A    between atoms: _666  and  _669
REMARK  270  A    between atoms: _669  and  _670
REMARK  271  A    between atoms: _670  and  _671
REMARK  272  A    between atoms: _671  and  _672
REMARK  273  A    between atoms: _681  and  _683
REMARK  274  A    between atoms: _683  and  _684
REMARK  275  A    between atoms: _683  and  _686
REMARK  276  A    between atoms: _686  and  _687
REMARK  277  A    between atoms: _687  and  _688
REMARK  278  A    between atoms: _688  and  _689
REMARK  279  A    between atoms: _689  and  _690
REMARK  280  A    between atoms: _694  and  _696
REMARK  281  A    between atoms: _696  and  _697
REMARK  282  A    between atoms: _696  and  _699
REMARK  283  A    between atoms: _699  and  _700
REMARK  284  A    between atoms: _710  and  _712
REMARK  285  A    between atoms: _712  and  _713
REMARK  286  A    between atoms: _712  and  _715
REMARK  287  A    between atoms: _715  and  _716
REMARK  288  A    between atoms: _716  and  _717
REMARK  289  A    between atoms: _720  and  _722
REMARK  290  A    between atoms: _722  and  _723
REMARK  291  A    between atoms: _726  and  _728
REMARK  292  A    between atoms: _728  and  _729
REMARK  293  A    between atoms: _732  and  _734
REMARK  294  A    between atoms: _734  and  _735
REMARK  295  A    between atoms: _734  and  _737
REMARK  296  A    between atoms: _737  and  _738
REMARK  297  A    between atoms: _738  and  _739
REMARK  298  A    between atoms: _739  and  _740
REMARK  299  A    between atoms: _749  and  _751
REMARK  300  A    between atoms: _751  and  _752
REMARK  301  A    between atoms: _751  and  _754
REMARK  302  A    between atoms: _754  and  _755
REMARK  303  A    between atoms: _755  and  _756
REMARK  304  A    between atoms: _759  and  _761
REMARK  305  A    between atoms: _761  and  _762
REMARK  306  A    between atoms: _765  and  _767
REMARK  307  A    between atoms: _767  and  _768
REMARK  308  A    between atoms: _767  and  _770
REMARK  309  A    between atoms: _770  and  _771
REMARK  310  A    between atoms: _771  and  _772
REMARK  311  A    between atoms: _775  and  _777
REMARK  312  A    between atoms: _777  and  _778
REMARK  313  A    between atoms: _777  and  _780
REMARK  314  A    between atoms: _780  and  _781
REMARK  315  A    between atoms: _781  and  _782
REMARK  316  A    between atoms: _787  and  _789
REMARK  317  A    between atoms: _789  and  _790
REMARK  318  A    between atoms: _789  and  _792
REMARK  319  A    between atoms: _792  and  _793
REMARK  320  A    between atoms: _803  and  _805
REMARK  321  A    between atoms: _805  and  _806
REMARK  322  A    between atoms: _805  and  _808
REMARK  323  A    between atoms: _808  and  _809
REMARK  324  A    between atoms: _809  and  _810
REMARK  325  A    between atoms: _810  and  _811
REMARK  326  A    between atoms: _820  and  _822
REMARK  327  A    between atoms: _822  and  _823
REMARK  328  A    between atoms: _826  and  _828
REMARK  329  A    between atoms: _828  and  _829
REMARK  330  A    between atoms: _828  and  _831
REMARK  331  A    between atoms: _831  and  _832
REMARK  332  A    between atoms: _837  and  _838
REMARK  333  A    between atoms: _840  and  _842
REMARK  334  A    between atoms: _842  and  _843
REMARK  335  A    between atoms: _842  and  _845
REMARK  336  A    between atoms: _845  and  _846
REMARK  337  A    between atoms: _849  and  _851
REMARK  338  A    between atoms: _851  and  _852
REMARK  339  A    between atoms: _854  and  _856
REMARK  340  A    between atoms: _856  and  _857
REMARK  341  A    between atoms: _856  and  _859
REMARK  342  A    between atoms: _859  and  _860
REMARK  343  A    between atoms: _863  and  _865
REMARK  344  A    between atoms: _865  and  _866
REMARK  345  A    between atoms: _865  and  _868
REMARK  346  A    between atoms: _868  and  _869
REMARK  347  A    between atoms: _870  and  _872
REMARK  348  A    between atoms: _872  and  _873
REMARK  349  A    between atoms: _872  and  _875
REMARK  350  A    between atoms: _878  and  _880
REMARK  351  A    between atoms: _880  and  _881
REMARK  352  A    between atoms: _880  and  _883
REMARK  353  A    between atoms: _883  and  _884
REMARK  354  A    between atoms: _884  and  _885
REMARK  355  A    between atoms: _888  and  _890
REMARK  356  A    between atoms: _890  and  _891
REMARK  357  A    between atoms: _890  and  _893
REMARK  358  A    between atoms: _893  and  _894
REMARK  359  A    between atoms: _904  and  _906
REMARK  360  A    between atoms: _906  and  _907
REMARK  361  A    between atoms: _906  and  _909
REMARK  362  A    between atoms: _909  and  _910
REMARK  363  A    between atoms: _913  and  _915
REMARK  364  A    between atoms: _915  and  _916
REMARK  365  A    between atoms: _915  and  _918
REMARK  366  A    between atoms: _918  and  _919
REMARK  367  A    between atoms: _919  and  _920
REMARK  368  A    between atoms: _920  and  _921
REMARK  369  A    between atoms: _930  and  _932
REMARK  370  A    between atoms: _932  and  _933
REMARK  371  A    between atoms: _932  and  _935
REMARK  372  A    between atoms: _935  and  _936
REMARK  373  A    between atoms: _941  and  _942
REMARK  374  A    between atoms: _944  and  _946
REMARK  375  A    between atoms: _946  and  _947
REMARK  376  A    between atoms: _946  and  _949
REMARK  377  A    between atoms: _949  and  _950
REMARK                            x       y       z     vdW  Elec       q    Type
REMARK                         _______ _______ _______ _____ _____    ______ ____
ROOT
ATOM      1  O   HOH     1      12.845  26.698  44.878  0.00  0.00    +0.000 OA
ENDROOT
TORSDOF 0
REMARK  Name = ../refined-set-2016/1xr9/1xr9_pocket.pdb
REMARK  377 active torsions:
REMARK  status: ('A' for Active; 'I' for Inactive)
REMARK    1  A    between atoms: _1  and  _3
REMARK    2  A    between atoms: _3  and  _4
REMARK    3  A    between atoms: _3  and  _6
REMARK    4  A    between atoms: _6  and  _7
REMARK    5  A    between atoms: _7  and  _8
REMARK    6  A    between atoms: _10  and  _12
REMARK    7  A    between atoms: _12  and  _13
REMARK    8  A    between atoms: _12  and  _15
REMARK    9  A    between atoms: _15  and  _16
REMARK   10  A    between atoms: _16  and  _17
REMARK   11  A    between atoms: _17  and  _18
REMARK   12  A    between atoms: _27  and  _29
REMARK   13  A    between atoms: _29  and  _30
REMARK   14  A    between atoms: _29  and  _32
REMARK   15  A    between atoms: _32  and  _33
REMARK   16  A    between atoms: _38  and  _39
REMARK   17  A    between atoms: _41  and  _43
REMARK   18  A    between atoms: _43  and  _44
REMARK   19  A    between atoms: _43  and  _46
REMARK   20  A    between atoms: _46  and  _47
REMARK   21  A    between atoms: _53  and  _55
REMARK   22  A    between atoms: _55  and  _56
REMARK   23  A    between atoms: _55  and  _58
REMARK   24  A    between atoms: _58  and  _59
REMARK   25  A    between atoms: _64  and  _65
REMARK   26  A    between atoms: _67  and  _69
REMARK   27  A    between atoms: _69  and  _70
REMARK   28  A    between atoms: _69  and  _72
REMARK   29  A    between atoms: _72  and  _73
REMARK   30  A    between atoms: _79  and  _81
REMARK   31  A    between atoms: _81  and  _82
REMARK   32  A    between atoms: _85  and  _87
REMARK   33  A    between atoms: _87  and  _88
REMARK   34  A    between atoms: _87  and  _90
REMARK   35  A    between atoms: _93  and  _95
REMARK   36  A    between atoms: _95  and  _96
REMARK   37  A    between atoms: _98  and  _100
REMARK   38  A    between atoms: _100  and  _101
REMARK   39  A    between atoms: _100  and  _103
REMARK   40  A    between atoms: _106  and  _108
REMARK   41  A    between atoms: _108  and  _109
REMARK   42  A    between atoms: _108  and  _111
REMARK   43  A    between atoms: _111  and  _112
REMARK   44  A    between atoms: _118  and  _120
REMARK   45  A    between atoms: _120  and  _121
REMARK   46  A    between atoms: _120  and  _123
REMARK   47  A    between atoms: _126  and  _128
REMARK   48  A    between atoms: _128  and  _129
REMARK   49  A    between atoms: _128  and  _131
REMARK   50  A    between atoms: _131  and  _132
REMARK   51  A    between atoms: _138  and  _140
REMARK   52  A    between atoms: _140  and  _141
REMARK   53  A    between atoms: _140  and  _143
REMARK   54  A    between atoms: _143  and  _144
REMARK   55  A    between atoms: _144  and  _145
REMARK   56  A    between atoms: _147  and  _149
REMARK   57  A    between atoms: _149  and  _150
REMARK   58  A    between atoms: _149  and  _152
REMARK   59  A    between atoms: _152  and  _153
REMARK   60  A    between atoms: _156  and  _158
REMARK   61  A    between atoms: _158  and  _159
REMARK   62  A    between atoms: _158  and  _161
REMARK   63  A    between atoms: _161  and  _162
REMARK   64  A    between atoms: _162  and  _163
REMARK   65  A    between atoms: _166  and  _168
REMARK   66  A    between atoms: _168  and  _169
REMARK   67  A    between atoms: _168  and  _171
REMARK   68  A    between atoms: _171  and  _172
REMARK   69  A    between atoms: _172  and  _173
REMARK   70  A    between atoms: _176  and  _178
REMARK   71  A    between atoms: _178  and  _179
REMARK   72  A    between atoms: _178  and  _181
REMARK   73  A    between atoms: _181  and  _182
REMARK   74  A    between atoms: _187  and  _188
REMARK   75  A    between atoms: _190  and  _192
REMARK   76  A    between atoms: _192  and  _193
REMARK   77  A    between atoms: _192  and  _195
REMARK   78  A    between atoms: _195  and  _196
REMARK   79  A    between atoms: _206  and  _208
REMARK   80  A    between atoms: _208  and  _209
REMARK   81  A    between atoms: _208  and  _211
REMARK   82  A    between atoms: _211  and  _212
REMARK   83  A    between atoms: _215  and  _217
REMARK   84  A    between atoms: _217  and  _218
REMARK   85  A    between atoms: _217  and  _220
REMARK   86  A    between atoms: _220  and  _221
REMARK   87  A    between atoms: _221  and  _222
REMARK   88  A    between atoms: _222  and  _223
REMARK   89  A    between atoms: _232  and  _234
REMARK   90  A    between atoms: _234  and  _235
REMARK   91  A    between atoms: _234  and  _237
REMARK   92  A    between atoms: _237  and  _238
REMARK   93  A    between atoms: _238  and  _239
REMARK   94  A    between atoms: _242  and  _244
REMARK   95  A    between atoms: _244  and  _245
REMARK   96  A    between atoms: _244  and  _247
REMARK   97  A    between atoms: _247  and  _248
REMARK   98  A    between atoms: _251  and  _253
REMARK   99  A    between atoms: _253  and  _254
REMARK  100  A    between atoms: _253  and  _256
REMARK  101  A    between atoms: _256  and  _257
REMARK  102  A    between atoms: _257  and  _258
REMARK  103  A    between atoms: _263  and  _265
REMARK  104  A    between atoms: _265  and  _266
REMARK  105  A    between atoms: _265  and  _268
REMARK  106  A    between atoms: _268  and  _269
REMARK  107  A    between atoms: _272  and  _274
REMARK  108  A    between atoms: _274  and  _275
REMARK  109  A    between atoms: _274  and  _277
REMARK  110  A    between atoms: _277  and  _278
REMARK  111  A    between atoms: _280  and  _282
REMARK  112  A    between atoms: _282  and  _283
REMARK  113  A    between atoms: _282  and  _285
REMARK  114  A    between atoms: _285  and  _286
REMARK  115  A    between atoms: _286  and  _287
REMARK  116  A    between atoms: _287  and  _288
REMARK  117  A    between atoms: _288  and  _289
REMARK  118  A    between atoms: _293  and  _295
REMARK  119  A    between atoms: _295  and  _296
REMARK  120  A    between atoms: _295  and  _298
REMARK  121  A    between atoms: _298  and  _299
REMARK  122  A    between atoms: _302  and  _304
REMARK  123  A    between atoms: _304  and  _305
REMARK  124  A    between atoms: _304  and  _307
REMARK  125  A    between atoms: _307  and  _308
REMARK  126  A    between atoms: _313  and  _315
REMARK  127  A    between atoms: _315  and  _316
REMARK  128  A    between atoms: _315  and  _318
REMARK  129  A    between atoms: _318  and  _319
REMARK  130  A    between atoms: _319  and  _320
REMARK  131  A    between atoms: _325  and  _327
REMARK  132  A    between atoms: _327  and  _328
REMARK  133  A    between atoms: _327  and  _330
REMARK  134  A    between atoms: _330  and  _331
REMARK  135  A    between atoms: _334  and  _336
REMARK  136  A    between atoms: _336  and  _337
REMARK  137  A    between atoms: _336  and  _339
REMARK  138  A    between atoms: _339  and  _340
REMARK  139  A    between atoms: _345  and  _346
REMARK  140  A    between atoms: _348  and  _350
REMARK  141  A    between atoms: _350  and  _351
REMARK  142  A    between atoms: _350  and  _353
REMARK  143  A    between atoms: _353  and  _354
REMARK  144  A    between atoms: _354  and  _355
REMARK  145  A    between atoms: _355  and  _356
REMARK  146  A    between atoms: _365  and  _367
REMARK  147  A    between atoms: _367  and  _368
REMARK  148  A    between atoms: _367  and  _370
REMARK  149  A    between atoms: _370  and  _371
REMARK  150  A    between atoms: _371  and  _372
REMARK  151  A    between atoms: _375  and  _377
REMARK  152  A    between atoms: _377  and  _378
REMARK  153  A    between atoms: _377  and  _380
REMARK  154  A    between atoms: _380  and  _381
REMARK  155  A    between atoms: _383  and  _385
REMARK  156  A    between atoms: _385  and  _386
REMARK  157  A    between atoms: _385  and  _388
REMARK  158  A    between atoms: _388  and  _389
REMARK  159  A    between atoms: _392  and  _394
REMARK  160  A    between atoms: _394  and  _395
REMARK  161  A    between atoms: _394  and  _397
REMARK  162  A    between atoms: _397  and  _398
REMARK  163  A    between atoms: _398  and  _399
REMARK  164  A    between atoms: _399  and  _400
REMARK  165  A    between atoms: _409  and  _411
REMARK  166  A    between atoms: _411  and  _412
REMARK  167  A    between atoms: _411  and  _414
REMARK  168  A    between atoms: _414  and  _415
REMARK  169  A    between atoms: _420  and  _422
REMARK  170  A    between atoms: _422  and  _423
REMARK  171  A    between atoms: _422  and  _425
REMARK  172  A    between atoms: _425  and  _426
REMARK  173  A    between atoms: _429  and  _431
REMARK  174  A    between atoms: _431  and  _432
REMARK  175  A    between atoms: _431  and  _434
REMARK  176  A    between atoms: _434  and  _435
REMARK  177  A    between atoms: _440  and  _441
REMARK  178  A    between atoms: _443  and  _445
REMARK  179  A    between atoms: _445  and  _446
REMARK  180  A    between atoms: _445  and  _448
REMARK  181  A    between atoms: _448  and  _449
REMARK  182  A    between atoms: _452  and  _454
REMARK  183  A    between atoms: _454  and  _455
REMARK  184  A    between atoms: _454  and  _457
REMARK  185  A    between atoms: _457  and  _458
REMARK  186  A    between atoms: _458  and  _459
REMARK  187  A    between atoms: _464  and  _466
REMARK  188  A    between atoms: _466  and  _467
REMARK  189  A    between atoms: _466  and  _469
REMARK  190  A    between atoms: _469  and  _470
REMARK  191  A    between atoms: _470  and  _471
REMARK  192  A    between atoms: _471  and  _472
REMARK  193  A    between atoms: _481  and  _483
REMARK  194  A    between atoms: _483  and  _484
REMARK  195  A    between atoms: _483  and  _486
REMARK  196  A    between atoms: _486  and  _487
REMARK  197  A    between atoms: _487  and  _488
REMARK  198  A    between atoms: _490  and  _492
REMARK  199  A    between atoms: _492  and  _493
REMARK  200  A    between atoms: _492  and  _495
REMARK  201  A    between atoms: _495  and  _496
REMARK  202  A    between atoms: _501  and  _502
REMARK  203  A    between atoms: _504  and  _506
REMARK  204  A    between atoms: _506  and  _507
REMARK  205  A    between atoms: _509  and  _511
REMARK  206  A    between atoms: _511  and  _512
REMARK  207  A    between atoms: _511  and  _514
REMARK  208  A    between atoms: _514  and  _515
REMARK  209  A    between atoms: _515  and  _869
REMARK  210  A    between atoms: _516  and  _518
REMARK  211  A    between atoms: _518  and  _519
REMARK  212  A    between atoms: _518  and  _521
REMARK  213  A    between atoms: _521  and  _522
REMARK  214  A    between atoms: _525  and  _527
REMARK  215  A    between atoms: _527  and  _528
REMARK  216  A    between atoms: _527  and  _530
REMARK  217  A    between atoms: _530  and  _531
REMARK  218  A    between atoms: _531  and  _532
REMARK  219  A    between atoms: _537  and  _539
REMARK  220  A    between atoms: _539  and  _540
REMARK  221  A    between atoms: _539  and  _542
REMARK  222  A    between atoms: _542  and  _543
REMARK  223  A    between atoms: _545  and  _547
REMARK  224  A    between atoms: _547  and  _548
REMARK  225  A    between atoms: _551  and  _553
REMARK  226  A    between atoms: _553  and  _554
REMARK  227  A    between atoms: _553  and  _556
REMARK  228  A    between atoms: _556  and  _557
REMARK  229  A    between atoms: _562  and  _563
REMARK  230  A    between atoms: _565  and  _567
REMARK  231  A    between atoms: _567  and  _568
REMARK  232  A    between atoms: _567  and  _570
REMARK  233  A    between atoms: _570  and  _571
REMARK  234  A    between atoms: _576  and  _577
REMARK  235  A    between atoms: _579  and  _581
REMARK  236  A    between atoms: _581  and  _582
REMARK  237  A    between atoms: _581  and  _584
REMARK  238  A    between atoms: _584  and  _585
REMARK  239  A    between atoms: _588  and  _590
REMARK  240  A    between atoms: _590  and  _591
REMARK  241  A    between atoms: _594  and  _596
REMARK  242  A    between atoms: _596  and  _597
REMARK  243  A    between atoms: _596  and  _599
REMARK  244  A    between atoms: _599  and  _600
REMARK  245  A    between atoms: _610  and  _612
REMARK  246  A    between atoms: _612  and  _613
REMARK  247  A    between atoms: _616  and  _618
REMARK  248  A    between atoms: _618  and  _619
REMARK  249  A    between atoms: _622  and  _624
REMARK  250  A    between atoms: _624  and  _625
REMARK  251  A    between atoms: _624  and  _627
REMARK  252  A    between atoms: _627  and  _628
REMARK  253  A    between atoms: _628  and  _629
REMARK  254  A    between atoms: _634  and  _636
REMARK  255  A    between atoms: _636  and  _637
REMARK  256  A    between atoms: _636  and  _639
REMARK  257  A    between atoms: _639  and  _640
REMARK  258  A    between atoms: _643  and  _645
REMARK  259  A    between atoms: _645  and  _646
REMARK  260  A    between atoms: _645  and  _648
REMARK  261  A    between atoms: _648  and  _649
REMARK  262  A    between atoms: _652  and  _654
REMARK  263  A    between atoms: _654  and  _655
REMARK  264  A    between atoms: _654  and  _657
REMARK  265  A    between atoms: _657  and  _658
REMARK  266  A    between atoms: _658  and  _659
REMARK  267  A    between atoms: _664  and  _666
REMARK  268  A    between atoms: _666  and  _667
REMARK  269  A    between atoms: _666  and  _669
REMARK  270  A    between atoms: _669  and  _670
REMARK  271  A    between atoms: _670  and  _671
REMARK  272  A    between atoms: _671  and  _672
REMARK  273  A    between atoms: _681  and  _683
REMARK  274  A    between atoms: _683  and  _684
REMARK  275  A    between atoms: _683  and  _686
REMARK  276  A    between atoms: _686  and  _687
REMARK  277  A    between atoms: _687  and  _688
REMARK  278  A    between atoms: _688  and  _689
REMARK  279  A    between atoms: _689  and  _690
REMARK  280  A    between atoms: _694  and  _696
REMARK  281  A    between atoms: _696  and  _697
REMARK  282  A    between atoms: _696  and  _699
REMARK  283  A    between atoms: _699  and  _700
REMARK  284  A    between atoms: _710  and  _712
REMARK  285  A    between atoms: _712  and  _713
REMARK  286  A    between atoms: _712  and  _715
REMARK  287  A    between atoms: _715  and  _716
REMARK  288  A    between atoms: _716  and  _717
REMARK  289  A    between atoms: _720  and  _722
REMARK  290  A    between atoms: _722  and  _723
REMARK  291  A    between atoms: _726  and  _728
REMARK  292  A    between atoms: _728  and  _729
REMARK  293  A    between atoms: _732  and  _734
REMARK  294  A    between atoms: _734  and  _735
REMARK  295  A    between atoms: _734  and  _737
REMARK  296  A    between atoms: _737  and  _738
REMARK  297  A    between atoms: _738  and  _739
REMARK  298  A    between atoms: _739  and  _740
REMARK  299  A    between atoms: _749  and  _751
REMARK  300  A    between atoms: _751  and  _752
REMARK  301  A    between atoms: _751  and  _754
REMARK  302  A    between atoms: _754  and  _755
REMARK  303  A    between atoms: _755  and  _756
REMARK  304  A    between atoms: _759  and  _761
REMARK  305  A    between atoms: _761  and  _762
REMARK  306  A    between atoms: _765  and  _767
REMARK  307  A    between atoms: _767  and  _768
REMARK  308  A    between atoms: _767  and  _770
REMARK  309  A    between atoms: _770  and  _771
REMARK  310  A    between atoms: _771  and  _772
REMARK  311  A    between atoms: _775  and  _777
REMARK  312  A    between atoms: _777  and  _778
REMARK  313  A    between atoms: _777  and  _780
REMARK  314  A    between atoms: _780  and  _781
REMARK  315  A    between atoms: _781  and  _782
REMARK  316  A    between atoms: _787  and  _789
REMARK  317  A    between atoms: _789  and  _790
REMARK  318  A    between atoms: _789  and  _792
REMARK  319  A    between atoms: _792  and  _793
REMARK  320  A    between atoms: _803  and  _805
REMARK  321  A    between atoms: _805  and  _806
REMARK  322  A    between atoms: _805  and  _808
REMARK  323  A    between atoms: _808  and  _809
REMARK  324  A    between atoms: _809  and  _810
REMARK  325  A    between atoms: _810  and  _811
REMARK  326  A    between atoms: _820  and  _822
REMARK  327  A    between atoms: _822  and  _823
REMARK  328  A    between atoms: _826  and  _828
REMARK  329  A    between atoms: _828  and  _829
REMARK  330  A    between atoms: _828  and  _831
REMARK  331  A    between atoms: _831  and  _832
REMARK  332  A    between atoms: _837  and  _838
REMARK  333  A    between atoms: _840  and  _842
REMARK  334  A    between atoms: _842  and  _843
REMARK  335  A    between atoms: _842  and  _845
REMARK  336  A    between atoms: _845  and  _846
REMARK  337  A    between atoms: _849  and  _851
REMARK  338  A    between atoms: _851  and  _852
REMARK  339  A    between atoms: _854  and  _856
REMARK  340  A    between atoms: _856  and  _857
REMARK  341  A    between atoms: _856  and  _859
REMARK  342  A    between atoms: _859  and  _860
REMARK  343  A    between atoms: _863  and  _865
REMARK  344  A    between atoms: _865  and  _866
REMARK  345  A    between atoms: _865  and  _868
REMARK  346  A    between atoms: _868  and  _869
REMARK  347  A    between atoms: _870  and  _872
REMARK  348  A    between atoms: _872  and  _873
REMARK  349  A    between atoms: _872  and  _875
REMARK  350  A    between atoms: _878  and  _880
REMARK  351  A    between atoms: _880  and  _881
REMARK  352  A    between atoms: _880  and  _883
REMARK  353  A    between atoms: _883  and  _884
REMARK  354  A    between atoms: _884  and  _885
REMARK  355  A    between atoms: _888  and  _890
REMARK  356  A    between atoms: _890  and  _891
REMARK  357  A    between atoms: _890  and  _893
REMARK  358  A    between atoms: _893  and  _894
REMARK  359  A    between atoms: _904  and  _906
REMARK  360  A    between atoms: _906  and  _907
REMARK  361  A    between atoms: _906  and  _909
REMARK  362  A    between atoms: _909  and  _910
REMARK  363  A    between atoms: _913  and  _915
REMARK  364  A    between atoms: _915  and  _916
REMARK  365  A    between atoms: _915  and  _918
REMARK  366  A    between atoms: _918  and  _919
REMARK  367  A    between atoms: _919  and  _920
REMARK  368  A    between atoms: _920  and  _921
REMARK  369  A    between atoms: _930  and  _932
REMARK  370  A    between atoms: _932  and  _933
REMARK  371  A    between atoms: _932  and  _935
REMARK  372  A    between atoms: _935  and  _936
REMARK  373  A    between atoms: _941  and  _942
REMARK  374  A    between atoms: _944  and  _946
REMARK  375  A    between atoms: _946  and  _947
REMARK  376  A    between atoms: _946  and  _949
REMARK  377  A    between atoms: _949  and  _950
REMARK                            x       y       z     vdW  Elec       q    Type
REMARK                         _______ _______ _______ _____ _____    ______ ____
ROOT
ATOM      1  O   HOH     1      33.791  28.756  38.087  0.00  0.00    +0.000 OA
ENDROOT
TORSDOF 0
REMARK  Name = ../refined-set-2016/1xr9/1xr9_pocket.pdb
REMARK  377 active torsions:
REMARK  status: ('A' for Active; 'I' for Inactive)
REMARK    1  A    between atoms: _1  and  _3
REMARK    2  A    between atoms: _3  and  _4
REMARK    3  A    between atoms: _3  and  _6
REMARK    4  A    between atoms: _6  and  _7
REMARK    5  A    between atoms: _7  and  _8
REMARK    6  A    between atoms: _10  and  _12
REMARK    7  A    between atoms: _12  and  _13
REMARK    8  A    between atoms: _12  and  _15
REMARK    9  A    between atoms: _15  and  _16
REMARK   10  A    between atoms: _16  and  _17
REMARK   11  A    between atoms: _17  and  _18
REMARK   12  A    between atoms: _27  and  _29
REMARK   13  A    between atoms: _29  and  _30
REMARK   14  A    between atoms: _29  and  _32
REMARK   15  A    between atoms: _32  and  _33
REMARK   16  A    between atoms: _38  and  _39
REMARK   17  A    between atoms: _41  and  _43
REMARK   18  A    between atoms: _43  and  _44
REMARK   19  A    between atoms: _43  and  _46
REMARK   20  A    between atoms: _46  and  _47
REMARK   21  A    between atoms: _53  and  _55
REMARK   22  A    between atoms: _55  and  _56
REMARK   23  A    between atoms: _55  and  _58
REMARK   24  A    between atoms: _58  and  _59
REMARK   25  A    between atoms: _64  and  _65
REMARK   26  A    between atoms: _67  and  _69
REMARK   27  A    between atoms: _69  and  _70
REMARK   28  A    between atoms: _69  and  _72
REMARK   29  A    between atoms: _72  and  _73
REMARK   30  A    between atoms: _79  and  _81
REMARK   31  A    between atoms: _81  and  _82
REMARK   32  A    between atoms: _85  and  _87
REMARK   33  A    between atoms: _87  and  _88
REMARK   34  A    between atoms: _87  and  _90
REMARK   35  A    between atoms: _93  and  _95
REMARK   36  A    between atoms: _95  and  _96
REMARK   37  A    between atoms: _98  and  _100
REMARK   38  A    between atoms: _100  and  _101
REMARK   39  A    between atoms: _100  and  _103
REMARK   40  A    between atoms: _106  and  _108
REMARK   41  A    between atoms: _108  and  _109
REMARK   42  A    between atoms: _108  and  _111
REMARK   43  A    between atoms: _111  and  _112
REMARK   44  A    between atoms: _118  and  _120
REMARK   45  A    between atoms: _120  and  _121
REMARK   46  A    between atoms: _120  and  _123
REMARK   47  A    between atoms: _126  and  _128
REMARK   48  A    between atoms: _128  and  _129
REMARK   49  A    between atoms: _128  and  _131
REMARK   50  A    between atoms: _131  and  _132
REMARK   51  A    between atoms: _138  and  _140
REMARK   52  A    between atoms: _140  and  _141
REMARK   53  A    between atoms: _140  and  _143
REMARK   54  A    between atoms: _143  and  _144
REMARK   55  A    between atoms: _144  and  _145
REMARK   56  A    between atoms: _147  and  _149
REMARK   57  A    between atoms: _149  and  _150
REMARK   58  A    between atoms: _149  and  _152
REMARK   59  A    between atoms: _152  and  _153
REMARK   60  A    between atoms: _156  and  _158
REMARK   61  A    between atoms: _158  and  _159
REMARK   62  A    between atoms: _158  and  _161
REMARK   63  A    between atoms: _161  and  _162
REMARK   64  A    between atoms: _162  and  _163
REMARK   65  A    between atoms: _166  and  _168
REMARK   66  A    between atoms: _168  and  _169
REMARK   67  A    between atoms: _168  and  _171
REMARK   68  A    between atoms: _171  and  _172
REMARK   69  A    between atoms: _172  and  _173
REMARK   70  A    between atoms: _176  and  _178
REMARK   71  A    between atoms: _178  and  _179
REMARK   72  A    between atoms: _178  and  _181
REMARK   73  A    between atoms: _181  and  _182
REMARK   74  A    between atoms: _187  and  _188
REMARK   75  A    between atoms: _190  and  _192
REMARK   76  A    between atoms: _192  and  _193
REMARK   77  A    between atoms: _192  and  _195
REMARK   78  A    between atoms: _195  and  _196
REMARK   79  A    between atoms: _206  and  _208
REMARK   80  A    between atoms: _208  and  _209
REMARK   81  A    between atoms: _208  and  _211
REMARK   82  A    between atoms: _211  and  _212
REMARK   83  A    between atoms: _215  and  _217
REMARK   84  A    between atoms: _217  and  _218
REMARK   85  A    between atoms: _217  and  _220
REMARK   86  A    between atoms: _220  and  _221
REMARK   87  A    between atoms: _221  and  _222
REMARK   88  A    between atoms: _222  and  _223
REMARK   89  A    between atoms: _232  and  _234
REMARK   90  A    between atoms: _234  and  _235
REMARK   91  A    between atoms: _234  and  _237
REMARK   92  A    between atoms: _237  and  _238
REMARK   93  A    between atoms: _238  and  _239
REMARK   94  A    between atoms: _242  and  _244
REMARK   95  A    between atoms: _244  and  _245
REMARK   96  A    between atoms: _244  and  _247
REMARK   97  A    between atoms: _247  and  _248
REMARK   98  A    between atoms: _251  and  _253
REMARK   99  A    between atoms: _253  and  _254
REMARK  100  A    between atoms: _253  and  _256
REMARK  101  A    between atoms: _256  and  _257
REMARK  102  A    between atoms: _257  and  _258
REMARK  103  A    between atoms: _263  and  _265
REMARK  104  A    between atoms: _265  and  _266
REMARK  105  A    between atoms: _265  and  _268
REMARK  106  A    between atoms: _268  and  _269
REMARK  107  A    between atoms: _272  and  _274
REMARK  108  A    between atoms: _274  and  _275
REMARK  109  A    between atoms: _274  and  _277
REMARK  110  A    between atoms: _277  and  _278
REMARK  111  A    between atoms: _280  and  _282
REMARK  112  A    between atoms: _282  and  _283
REMARK  113  A    between atoms: _282  and  _285
REMARK  114  A    between atoms: _285  and  _286
REMARK  115  A    between atoms: _286  and  _287
REMARK  116  A    between atoms: _287  and  _288
REMARK  117  A    between atoms: _288  and  _289
REMARK  118  A    between atoms: _293  and  _295
REMARK  119  A    between atoms: _295  and  _296
REMARK  120  A    between atoms: _295  and  _298
REMARK  121  A    between atoms: _298  and  _299
REMARK  122  A    between atoms: _302  and  _304
REMARK  123  A    between atoms: _304  and  _305
REMARK  124  A    between atoms: _304  and  _307
REMARK  125  A    between atoms: _307  and  _308
REMARK  126  A    between atoms: _313  and  _315
REMARK  127  A    between atoms: _315  and  _316
REMARK  128  A    between atoms: _315  and  _318
REMARK  129  A    between atoms: _318  and  _319
REMARK  130  A    between atoms: _319  and  _320
REMARK  131  A    between atoms: _325  and  _327
REMARK  132  A    between atoms: _327  and  _328
REMARK  133  A    between atoms: _327  and  _330
REMARK  134  A    between atoms: _330  and  _331
REMARK  135  A    between atoms: _334  and  _336
REMARK  136  A    between atoms: _336  and  _337
REMARK  137  A    between atoms: _336  and  _339
REMARK  138  A    between atoms: _339  and  _340
REMARK  139  A    between atoms: _345  and  _346
REMARK  140  A    between atoms: _348  and  _350
REMARK  141  A    between atoms: _350  and  _351
REMARK  142  A    between atoms: _350  and  _353
REMARK  143  A    between atoms: _353  and  _354
REMARK  144  A    between atoms: _354  and  _355
REMARK  145  A    between atoms: _355  and  _356
REMARK  146  A    between atoms: _365  and  _367
REMARK  147  A    between atoms: _367  and  _368
REMARK  148  A    between atoms: _367  and  _370
REMARK  149  A    between atoms: _370  and  _371
REMARK  150  A    between atoms: _371  and  _372
REMARK  151  A    between atoms: _375  and  _377
REMARK  152  A    between atoms: _377  and  _378
REMARK  153  A    between atoms: _377  and  _380
REMARK  154  A    between atoms: _380  and  _381
REMARK  155  A    between atoms: _383  and  _385
REMARK  156  A    between atoms: _385  and  _386
REMARK  157  A    between atoms: _385  and  _388
REMARK  158  A    between atoms: _388  and  _389
REMARK  159  A    between atoms: _392  and  _394
REMARK  160  A    between atoms: _394  and  _395
REMARK  161  A    between atoms: _394  and  _397
REMARK  162  A    between atoms: _397  and  _398
REMARK  163  A    between atoms: _398  and  _399
REMARK  164  A    between atoms: _399  and  _400
REMARK  165  A    between atoms: _409  and  _411
REMARK  166  A    between atoms: _411  and  _412
REMARK  167  A    between atoms: _411  and  _414
REMARK  168  A    between atoms: _414  and  _415
REMARK  169  A    between atoms: _420  and  _422
REMARK  170  A    between atoms: _422  and  _423
REMARK  171  A    between atoms: _422  and  _425
REMARK  172  A    between atoms: _425  and  _426
REMARK  173  A    between atoms: _429  and  _431
REMARK  174  A    between atoms: _431  and  _432
REMARK  175  A    between atoms: _431  and  _434
REMARK  176  A    between atoms: _434  and  _435
REMARK  177  A    between atoms: _440  and  _441
REMARK  178  A    between atoms: _443  and  _445
REMARK  179  A    between atoms: _445  and  _446
REMARK  180  A    between atoms: _445  and  _448
REMARK  181  A    between atoms: _448  and  _449
REMARK  182  A    between atoms: _452  and  _454
REMARK  183  A    between atoms: _454  and  _455
REMARK  184  A    between atoms: _454  and  _457
REMARK  185  A    between atoms: _457  and  _458
REMARK  186  A    between atoms: _458  and  _459
REMARK  187  A    between atoms: _464  and  _466
REMARK  188  A    between atoms: _466  and  _467
REMARK  189  A    between atoms: _466  and  _469
REMARK  190  A    between atoms: _469  and  _470
REMARK  191  A    between atoms: _470  and  _471
REMARK  192  A    between atoms: _471  and  _472
REMARK  193  A    between atoms: _481  and  _483
REMARK  194  A    between atoms: _483  and  _484
REMARK  195  A    between atoms: _483  and  _486
REMARK  196  A    between atoms: _486  and  _487
REMARK  197  A    between atoms: _487  and  _488
REMARK  198  A    between atoms: _490  and  _492
REMARK  199  A    between atoms: _492  and  _493
REMARK  200  A    between atoms: _492  and  _495
REMARK  201  A    between atoms: _495  and  _496
REMARK  202  A    between atoms: _501  and  _502
REMARK  203  A    between atoms: _504  and  _506
REMARK  204  A    between atoms: _506  and  _507
REMARK  205  A    between atoms: _509  and  _511
REMARK  206  A    between atoms: _511  and  _512
REMARK  207  A    between atoms: _511  and  _514
REMARK  208  A    between atoms: _514  and  _515
REMARK  209  A    between atoms: _515  and  _869
REMARK  210  A    between atoms: _516  and  _518
REMARK  211  A    between atoms: _518  and  _519
REMARK  212  A    between atoms: _518  and  _521
REMARK  213  A    between atoms: _521  and  _522
REMARK  214  A    between atoms: _525  and  _527
REMARK  215  A    between atoms: _527  and  _528
REMARK  216  A    between atoms: _527  and  _530
REMARK  217  A    between atoms: _530  and  _531
REMARK  218  A    between atoms: _531  and  _532
REMARK  219  A    between atoms: _537  and  _539
REMARK  220  A    between atoms: _539  and  _540
REMARK  221  A    between atoms: _539  and  _542
REMARK  222  A    between atoms: _542  and  _543
REMARK  223  A    between atoms: _545  and  _547
REMARK  224  A    between atoms: _547  and  _548
REMARK  225  A    between atoms: _551  and  _553
REMARK  226  A    between atoms: _553  and  _554
REMARK  227  A    between atoms: _553  and  _556
REMARK  228  A    between atoms: _556  and  _557
REMARK  229  A    between atoms: _562  and  _563
REMARK  230  A    between atoms: _565  and  _567
REMARK  231  A    between atoms: _567  and  _568
REMARK  232  A    between atoms: _567  and  _570
REMARK  233  A    between atoms: _570  and  _571
REMARK  234  A    between atoms: _576  and  _577
REMARK  235  A    between atoms: _579  and  _581
REMARK  236  A    between atoms: _581  and  _582
REMARK  237  A    between atoms: _581  and  _584
REMARK  238  A    between atoms: _584  and  _585
REMARK  239  A    between atoms: _588  and  _590
REMARK  240  A    between atoms: _590  and  _591
REMARK  241  A    between atoms: _594  and  _596
REMARK  242  A    between atoms: _596  and  _597
REMARK  243  A    between atoms: _596  and  _599
REMARK  244  A    between atoms: _599  and  _600
REMARK  245  A    between atoms: _610  and  _612
REMARK  246  A    between atoms: _612  and  _613
REMARK  247  A    between atoms: _616  and  _618
REMARK  248  A    between atoms: _618  and  _619
REMARK  249  A    between atoms: _622  and  _624
REMARK  250  A    between atoms: _624  and  _625
REMARK  251  A    between atoms: _624  and  _627
REMARK  252  A    between atoms: _627  and  _628
REMARK  253  A    between atoms: _628  and  _629
REMARK  254  A    between atoms: _634  and  _636
REMARK  255  A    between atoms: _636  and  _637
REMARK  256  A    between atoms: _636  and  _639
REMARK  257  A    between atoms: _639  and  _640
REMARK  258  A    between atoms: _643  and  _645
REMARK  259  A    between atoms: _645  and  _646
REMARK  260  A    between atoms: _645  and  _648
REMARK  261  A    between atoms: _648  and  _649
REMARK  262  A    between atoms: _652  and  _654
REMARK  263  A    between atoms: _654  and  _655
REMARK  264  A    between atoms: _654  and  _657
REMARK  265  A    between atoms: _657  and  _658
REMARK  266  A    between atoms: _658  and  _659
REMARK  267  A    between atoms: _664  and  _666
REMARK  268  A    between atoms: _666  and  _667
REMARK  269  A    between atoms: _666  and  _669
REMARK  270  A    between atoms: _669  and  _670
REMARK  271  A    between atoms: _670  and  _671
REMARK  272  A    between atoms: _671  and  _672
REMARK  273  A    between atoms: _681  and  _683
REMARK  274  A    between atoms: _683  and  _684
REMARK  275  A    between atoms: _683  and  _686
REMARK  276  A    between atoms: _686  and  _687
REMARK  277  A    between atoms: _687  and  _688
REMARK  278  A    between atoms: _688  and  _689
REMARK  279  A    between atoms: _689  and  _690
REMARK  280  A    between atoms: _694  and  _696
REMARK  281  A    between atoms: _696  and  _697
REMARK  282  A    between atoms: _696  and  _699
REMARK  283  A    between atoms: _699  and  _700
REMARK  284  A    between atoms: _710  and  _712
REMARK  285  A    between atoms: _712  and  _713
REMARK  286  A    between atoms: _712  and  _715
REMARK  287  A    between atoms: _715  and  _716
REMARK  288  A    between atoms: _716  and  _717
REMARK  289  A    between atoms: _720  and  _722
REMARK  290  A    between atoms: _722  and  _723
REMARK  291  A    between atoms: _726  and  _728
REMARK  292  A    between atoms: _728  and  _729
REMARK  293  A    between atoms: _732  and  _734
REMARK  294  A    between atoms: _734  and  _735
REMARK  295  A    between atoms: _734  and  _737
REMARK  296  A    between atoms: _737  and  _738
REMARK  297  A    between atoms: _738  and  _739
REMARK  298  A    between atoms: _739  and  _740
REMARK  299  A    between atoms: _749  and  _751
REMARK  300  A    between atoms: _751  and  _752
REMARK  301  A    between atoms: _751  and  _754
REMARK  302  A    between atoms: _754  and  _755
REMARK  303  A    between atoms: _755  and  _756
REMARK  304  A    between atoms: _759  and  _761
REMARK  305  A    between atoms: _761  and  _762
REMARK  306  A    between atoms: _765  and  _767
REMARK  307  A    between atoms: _767  and  _768
REMARK  308  A    between atoms: _767  and  _770
REMARK  309  A    between atoms: _770  and  _771
REMARK  310  A    between atoms: _771  and  _772
REMARK  311  A    between atoms: _775  and  _777
REMARK  312  A    between atoms: _777  and  _778
REMARK  313  A    between atoms: _777  and  _780
REMARK  314  A    between atoms: _780  and  _781
REMARK  315  A    between atoms: _781  and  _782
REMARK  316  A    between atoms: _787  and  _789
REMARK  317  A    between atoms: _789  and  _790
REMARK  318  A    between atoms: _789  and  _792
REMARK  319  A    between atoms: _792  and  _793
REMARK  320  A    between atoms: _803  and  _805
REMARK  321  A    between atoms: _805  and  _806
REMARK  322  A    between atoms: _805  and  _808
REMARK  323  A    between atoms: _808  and  _809
REMARK  324  A    between atoms: _809  and  _810
REMARK  325  A    between atoms: _810  and  _811
REMARK  326  A    between atoms: _820  and  _822
REMARK  327  A    between atoms: _822  and  _823
REMARK  328  A    between atoms: _826  and  _828
REMARK  329  A    between atoms: _828  and  _829
REMARK  330  A    between atoms: _828  and  _831
REMARK  331  A    between atoms: _831  and  _832
REMARK  332  A    between atoms: _837  and  _838
REMARK  333  A    between atoms: _840  and  _842
REMARK  334  A    between atoms: _842  and  _843
REMARK  335  A    between atoms: _842  and  _845
REMARK  336  A    between atoms: _845  and  _846
REMARK  337  A    between atoms: _849  and  _851
REMARK  338  A    between atoms: _851  and  _852
REMARK  339  A    between atoms: _854  and  _856
REMARK  340  A    between atoms: _856  and  _857
REMARK  341  A    between atoms: _856  and  _859
REMARK  342  A    between atoms: _859  and  _860
REMARK  343  A    between atoms: _863  and  _865
REMARK  344  A    between atoms: _865  and  _866
REMARK  345  A    between atoms: _865  and  _868
REMARK  346  A    between atoms: _868  and  _869
REMARK  347  A    between atoms: _870  and  _872
REMARK  348  A    between atoms: _872  and  _873
REMARK  349  A    between atoms: _872  and  _875
REMARK  350  A    between atoms: _878  and  _880
REMARK  351  A    between atoms: _880  and  _881
REMARK  352  A    between atoms: _880  and  _883
REMARK  353  A    between atoms: _883  and  _884
REMARK  354  A    between atoms: _884  and  _885
REMARK  355  A    between atoms: _888  and  _890
REMARK  356  A    between atoms: _890  and  _891
REMARK  357  A    between atoms: _890  and  _893
REMARK  358  A    between atoms: _893  and  _894
REMARK  359  A    between atoms: _904  and  _906
REMARK  360  A    between atoms: _906  and  _907
REMARK  361  A    between atoms: _906  and  _909
REMARK  362  A    between atoms: _909  and  _910
REMARK  363  A    between atoms: _913  and  _915
REMARK  364  A    between atoms: _915  and  _916
REMARK  365  A    between atoms: _915  and  _918
REMARK  366  A    between atoms: _918  and  _919
REMARK  367  A    between atoms: _919  and  _920
REMARK  368  A    between atoms: _920  and  _921
REMARK  369  A    between atoms: _930  and  _932
REMARK  370  A    between atoms: _932  and  _933
REMARK  371  A    between atoms: _932  and  _935
REMARK  372  A    between atoms: _935  and  _936
REMARK  373  A    between atoms: _941  and  _942
REMARK  374  A    between atoms: _944  and  _946
REMARK  375  A    between atoms: _946  and  _947
REMARK  376  A    between atoms: _946  and  _949
REMARK  377  A    between atoms: _949  and  _950
REMARK                            x       y       z     vdW  Elec       q    Type
REMARK                         _______ _______ _______ _____ _____    ______ ____
ROOT
ATOM      1  O   HOH     1      25.649  25.879  41.874  0.00  0.00    +0.000 OA
ENDROOT
TORSDOF 0
REMARK  Name = ../refined-set-2016/1xr9/1xr9_pocket.pdb
REMARK  377 active torsions:
REMARK  status: ('A' for Active; 'I' for Inactive)
REMARK    1  A    between atoms: _1  and  _3
REMARK    2  A    between atoms: _3  and  _4
REMARK    3  A    between atoms: _3  and  _6
REMARK    4  A    between atoms: _6  and  _7
REMARK    5  A    between atoms: _7  and  _8
REMARK    6  A    between atoms: _10  and  _12
REMARK    7  A    between atoms: _12  and  _13
REMARK    8  A    between atoms: _12  and  _15
REMARK    9  A    between atoms: _15  and  _16
REMARK   10  A    between atoms: _16  and  _17
REMARK   11  A    between atoms: _17  and  _18
REMARK   12  A    between atoms: _27  and  _29
REMARK   13  A    between atoms: _29  and  _30
REMARK   14  A    between atoms: _29  and  _32
REMARK   15  A    between atoms: _32  and  _33
REMARK   16  A    between atoms: _38  and  _39
REMARK   17  A    between atoms: _41  and  _43
REMARK   18  A    between atoms: _43  and  _44
REMARK   19  A    between atoms: _43  and  _46
REMARK   20  A    between atoms: _46  and  _47
REMARK   21  A    between atoms: _53  and  _55
REMARK   22  A    between atoms: _55  and  _56
REMARK   23  A    between atoms: _55  and  _58
REMARK   24  A    between atoms: _58  and  _59
REMARK   25  A    between atoms: _64  and  _65
REMARK   26  A    between atoms: _67  and  _69
REMARK   27  A    between atoms: _69  and  _70
REMARK   28  A    between atoms: _69  and  _72
REMARK   29  A    between atoms: _72  and  _73
REMARK   30  A    between atoms: _79  and  _81
REMARK   31  A    between atoms: _81  and  _82
REMARK   32  A    between atoms: _85  and  _87
REMARK   33  A    between atoms: _87  and  _88
REMARK   34  A    between atoms: _87  and  _90
REMARK   35  A    between atoms: _93  and  _95
REMARK   36  A    between atoms: _95  and  _96
REMARK   37  A    between atoms: _98  and  _100
REMARK   38  A    between atoms: _100  and  _101
REMARK   39  A    between atoms: _100  and  _103
REMARK   40  A    between atoms: _106  and  _108
REMARK   41  A    between atoms: _108  and  _109
REMARK   42  A    between atoms: _108  and  _111
REMARK   43  A    between atoms: _111  and  _112
REMARK   44  A    between atoms: _118  and  _120
REMARK   45  A    between atoms: _120  and  _121
REMARK   46  A    between atoms: _120  and  _123
REMARK   47  A    between atoms: _126  and  _128
REMARK   48  A    between atoms: _128  and  _129
REMARK   49  A    between atoms: _128  and  _131
REMARK   50  A    between atoms: _131  and  _132
REMARK   51  A    between atoms: _138  and  _140
REMARK   52  A    between atoms: _140  and  _141
REMARK   53  A    between atoms: _140  and  _143
REMARK   54  A    between atoms: _143  and  _144
REMARK   55  A    between atoms: _144  and  _145
REMARK   56  A    between atoms: _147  and  _149
REMARK   57  A    between atoms: _149  and  _150
REMARK   58  A    between atoms: _149  and  _152
REMARK   59  A    between atoms: _152  and  _153
REMARK   60  A    between atoms: _156  and  _158
REMARK   61  A    between atoms: _158  and  _159
REMARK   62  A    between atoms: _158  and  _161
REMARK   63  A    between atoms: _161  and  _162
REMARK   64  A    between atoms: _162  and  _163
REMARK   65  A    between atoms: _166  and  _168
REMARK   66  A    between atoms: _168  and  _169
REMARK   67  A    between atoms: _168  and  _171
REMARK   68  A    between atoms: _171  and  _172
REMARK   69  A    between atoms: _172  and  _173
REMARK   70  A    between atoms: _176  and  _178
REMARK   71  A    between atoms: _178  and  _179
REMARK   72  A    between atoms: _178  and  _181
REMARK   73  A    between atoms: _181  and  _182
REMARK   74  A    between atoms: _187  and  _188
REMARK   75  A    between atoms: _190  and  _192
REMARK   76  A    between atoms: _192  and  _193
REMARK   77  A    between atoms: _192  and  _195
REMARK   78  A    between atoms: _195  and  _196
REMARK   79  A    between atoms: _206  and  _208
REMARK   80  A    between atoms: _208  and  _209
REMARK   81  A    between atoms: _208  and  _211
REMARK   82  A    between atoms: _211  and  _212
REMARK   83  A    between atoms: _215  and  _217
REMARK   84  A    between atoms: _217  and  _218
REMARK   85  A    between atoms: _217  and  _220
REMARK   86  A    between atoms: _220  and  _221
REMARK   87  A    between atoms: _221  and  _222
REMARK   88  A    between atoms: _222  and  _223
REMARK   89  A    between atoms: _232  and  _234
REMARK   90  A    between atoms: _234  and  _235
REMARK   91  A    between atoms: _234  and  _237
REMARK   92  A    between atoms: _237  and  _238
REMARK   93  A    between atoms: _238  and  _239
REMARK   94  A    between atoms: _242  and  _244
REMARK   95  A    between atoms: _244  and  _245
REMARK   96  A    between atoms: _244  and  _247
REMARK   97  A    between atoms: _247  and  _248
REMARK   98  A    between atoms: _251  and  _253
REMARK   99  A    between atoms: _253  and  _254
REMARK  100  A    between atoms: _253  and  _256
REMARK  101  A    between atoms: _256  and  _257
REMARK  102  A    between atoms: _257  and  _258
REMARK  103  A    between atoms: _263  and  _265
REMARK  104  A    between atoms: _265  and  _266
REMARK  105  A    between atoms: _265  and  _268
REMARK  106  A    between atoms: _268  and  _269
REMARK  107  A    between atoms: _272  and  _274
REMARK  108  A    between atoms: _274  and  _275
REMARK  109  A    between atoms: _274  and  _277
REMARK  110  A    between atoms: _277  and  _278
REMARK  111  A    between atoms: _280  and  _282
REMARK  112  A    between atoms: _282  and  _283
REMARK  113  A    between atoms: _282  and  _285
REMARK  114  A    between atoms: _285  and  _286
REMARK  115  A    between atoms: _286  and  _287
REMARK  116  A    between atoms: _287  and  _288
REMARK  117  A    between atoms: _288  and  _289
REMARK  118  A    between atoms: _293  and  _295
REMARK  119  A    between atoms: _295  and  _296
REMARK  120  A    between atoms: _295  and  _298
REMARK  121  A    between atoms: _298  and  _299
REMARK  122  A    between atoms: _302  and  _304
REMARK  123  A    between atoms: _304  and  _305
REMARK  124  A    between atoms: _304  and  _307
REMARK  125  A    between atoms: _307  and  _308
REMARK  126  A    between atoms: _313  and  _315
REMARK  127  A    between atoms: _315  and  _316
REMARK  128  A    between atoms: _315  and  _318
REMARK  129  A    between atoms: _318  and  _319
REMARK  130  A    between atoms: _319  and  _320
REMARK  131  A    between atoms: _325  and  _327
REMARK  132  A    between atoms: _327  and  _328
REMARK  133  A    between atoms: _327  and  _330
REMARK  134  A    between atoms: _330  and  _331
REMARK  135  A    between atoms: _334  and  _336
REMARK  136  A    between atoms: _336  and  _337
REMARK  137  A    between atoms: _336  and  _339
REMARK  138  A    between atoms: _339  and  _340
REMARK  139  A    between atoms: _345  and  _346
REMARK  140  A    between atoms: _348  and  _350
REMARK  141  A    between atoms: _350  and  _351
REMARK  142  A    between atoms: _350  and  _353
REMARK  143  A    between atoms: _353  and  _354
REMARK  144  A    between atoms: _354  and  _355
REMARK  145  A    between atoms: _355  and  _356
REMARK  146  A    between atoms: _365  and  _367
REMARK  147  A    between atoms: _367  and  _368
REMARK  148  A    between atoms: _367  and  _370
REMARK  149  A    between atoms: _370  and  _371
REMARK  150  A    between atoms: _371  and  _372
REMARK  151  A    between atoms: _375  and  _377
REMARK  152  A    between atoms: _377  and  _378
REMARK  153  A    between atoms: _377  and  _380
REMARK  154  A    between atoms: _380  and  _381
REMARK  155  A    between atoms: _383  and  _385
REMARK  156  A    between atoms: _385  and  _386
REMARK  157  A    between atoms: _385  and  _388
REMARK  158  A    between atoms: _388  and  _389
REMARK  159  A    between atoms: _392  and  _394
REMARK  160  A    between atoms: _394  and  _395
REMARK  161  A    between atoms: _394  and  _397
REMARK  162  A    between atoms: _397  and  _398
REMARK  163  A    between atoms: _398  and  _399
REMARK  164  A    between atoms: _399  and  _400
REMARK  165  A    between atoms: _409  and  _411
REMARK  166  A    between atoms: _411  and  _412
REMARK  167  A    between atoms: _411  and  _414
REMARK  168  A    between atoms: _414  and  _415
REMARK  169  A    between atoms: _420  and  _422
REMARK  170  A    between atoms: _422  and  _423
REMARK  171  A    between atoms: _422  and  _425
REMARK  172  A    between atoms: _425  and  _426
REMARK  173  A    between atoms: _429  and  _431
REMARK  174  A    between atoms: _431  and  _432
REMARK  175  A    between atoms: _431  and  _434
REMARK  176  A    between atoms: _434  and  _435
REMARK  177  A    between atoms: _440  and  _441
REMARK  178  A    between atoms: _443  and  _445
REMARK  179  A    between atoms: _445  and  _446
REMARK  180  A    between atoms: _445  and  _448
REMARK  181  A    between atoms: _448  and  _449
REMARK  182  A    between atoms: _452  and  _454
REMARK  183  A    between atoms: _454  and  _455
REMARK  184  A    between atoms: _454  and  _457
REMARK  185  A    between atoms: _457  and  _458
REMARK  186  A    between atoms: _458  and  _459
REMARK  187  A    between atoms: _464  and  _466
REMARK  188  A    between atoms: _466  and  _467
REMARK  189  A    between atoms: _466  and  _469
REMARK  190  A    between atoms: _469  and  _470
REMARK  191  A    between atoms: _470  and  _471
REMARK  192  A    between atoms: _471  and  _472
REMARK  193  A    between atoms: _481  and  _483
REMARK  194  A    between atoms: _483  and  _484
REMARK  195  A    between atoms: _483  and  _486
REMARK  196  A    between atoms: _486  and  _487
REMARK  197  A    between atoms: _487  and  _488
REMARK  198  A    between atoms: _490  and  _492
REMARK  199  A    between atoms: _492  and  _493
REMARK  200  A    between atoms: _492  and  _495
REMARK  201  A    between atoms: _495  and  _496
REMARK  202  A    between atoms: _501  and  _502
REMARK  203  A    between atoms: _504  and  _506
REMARK  204  A    between atoms: _506  and  _507
REMARK  205  A    between atoms: _509  and  _511
REMARK  206  A    between atoms: _511  and  _512
REMARK  207  A    between atoms: _511  and  _514
REMARK  208  A    between atoms: _514  and  _515
REMARK  209  A    between atoms: _515  and  _869
REMARK  210  A    between atoms: _516  and  _518
REMARK  211  A    between atoms: _518  and  _519
REMARK  212  A    between atoms: _518  and  _521
REMARK  213  A    between atoms: _521  and  _522
REMARK  214  A    between atoms: _525  and  _527
REMARK  215  A    between atoms: _527  and  _528
REMARK  216  A    between atoms: _527  and  _530
REMARK  217  A    between atoms: _530  and  _531
REMARK  218  A    between atoms: _531  and  _532
REMARK  219  A    between atoms: _537  and  _539
REMARK  220  A    between atoms: _539  and  _540
REMARK  221  A    between atoms: _539  and  _542
REMARK  222  A    between atoms: _542  and  _543
REMARK  223  A    between atoms: _545  and  _547
REMARK  224  A    between atoms: _547  and  _548
REMARK  225  A    between atoms: _551  and  _553
REMARK  226  A    between atoms: _553  and  _554
REMARK  227  A    between atoms: _553  and  _556
REMARK  228  A    between atoms: _556  and  _557
REMARK  229  A    between atoms: _562  and  _563
REMARK  230  A    between atoms: _565  and  _567
REMARK  231  A    between atoms: _567  and  _568
REMARK  232  A    between atoms: _567  and  _570
REMARK  233  A    between atoms: _570  and  _571
REMARK  234  A    between atoms: _576  and  _577
REMARK  235  A    between atoms: _579  and  _581
REMARK  236  A    between atoms: _581  and  _582
REMARK  237  A    between atoms: _581  and  _584
REMARK  238  A    between atoms: _584  and  _585
REMARK  239  A    between atoms: _588  and  _590
REMARK  240  A    between atoms: _590  and  _591
REMARK  241  A    between atoms: _594  and  _596
REMARK  242  A    between atoms: _596  and  _597
REMARK  243  A    between atoms: _596  and  _599
REMARK  244  A    between atoms: _599  and  _600
REMARK  245  A    between atoms: _610  and  _612
REMARK  246  A    between atoms: _612  and  _613
REMARK  247  A    between atoms: _616  and  _618
REMARK  248  A    between atoms: _618  and  _619
REMARK  249  A    between atoms: _622  and  _624
REMARK  250  A    between atoms: _624  and  _625
REMARK  251  A    between atoms: _624  and  _627
REMARK  252  A    between atoms: _627  and  _628
REMARK  253  A    between atoms: _628  and  _629
REMARK  254  A    between atoms: _634  and  _636
REMARK  255  A    between atoms: _636  and  _637
REMARK  256  A    between atoms: _636  and  _639
REMARK  257  A    between atoms: _639  and  _640
REMARK  258  A    between atoms: _643  and  _645
REMARK  259  A    between atoms: _645  and  _646
REMARK  260  A    between atoms: _645  and  _648
REMARK  261  A    between atoms: _648  and  _649
REMARK  262  A    between atoms: _652  and  _654
REMARK  263  A    between atoms: _654  and  _655
REMARK  264  A    between atoms: _654  and  _657
REMARK  265  A    between atoms: _657  and  _658
REMARK  266  A    between atoms: _658  and  _659
REMARK  267  A    between atoms: _664  and  _666
REMARK  268  A    between atoms: _666  and  _667
REMARK  269  A    between atoms: _666  and  _669
REMARK  270  A    between atoms: _669  and  _670
REMARK  271  A    between atoms: _670  and  _671
REMARK  272  A    between atoms: _671  and  _672
REMARK  273  A    between atoms: _681  and  _683
REMARK  274  A    between atoms: _683  and  _684
REMARK  275  A    between atoms: _683  and  _686
REMARK  276  A    between atoms: _686  and  _687
REMARK  277  A    between atoms: _687  and  _688
REMARK  278  A    between atoms: _688  and  _689
REMARK  279  A    between atoms: _689  and  _690
REMARK  280  A    between atoms: _694  and  _696
REMARK  281  A    between atoms: _696  and  _697
REMARK  282  A    between atoms: _696  and  _699
REMARK  283  A    between atoms: _699  and  _700
REMARK  284  A    between atoms: _710  and  _712
REMARK  285  A    between atoms: _712  and  _713
REMARK  286  A    between atoms: _712  and  _715
REMARK  287  A    between atoms: _715  and  _716
REMARK  288  A    between atoms: _716  and  _717
REMARK  289  A    between atoms: _720  and  _722
REMARK  290  A    between atoms: _722  and  _723
REMARK  291  A    between atoms: _726  and  _728
REMARK  292  A    between atoms: _728  and  _729
REMARK  293  A    between atoms: _732  and  _734
REMARK  294  A    between atoms: _734  and  _735
REMARK  295  A    between atoms: _734  and  _737
REMARK  296  A    between atoms: _737  and  _738
REMARK  297  A    between atoms: _738  and  _739
REMARK  298  A    between atoms: _739  and  _740
REMARK  299  A    between atoms: _749  and  _751
REMARK  300  A    between atoms: _751  and  _752
REMARK  301  A    between atoms: _751  and  _754
REMARK  302  A    between atoms: _754  and  _755
REMARK  303  A    between atoms: _755  and  _756
REMARK  304  A    between atoms: _759  and  _761
REMARK  305  A    between atoms: _761  and  _762
REMARK  306  A    between atoms: _765  and  _767
REMARK  307  A    between atoms: _767  and  _768
REMARK  308  A    between atoms: _767  and  _770
REMARK  309  A    between atoms: _770  and  _771
REMARK  310  A    between atoms: _771  and  _772
REMARK  311  A    between atoms: _775  and  _777
REMARK  312  A    between atoms: _777  and  _778
REMARK  313  A    between atoms: _777  and  _780
REMARK  314  A    between atoms: _780  and  _781
REMARK  315  A    between atoms: _781  and  _782
REMARK  316  A    between atoms: _787  and  _789
REMARK  317  A    between atoms: _789  and  _790
REMARK  318  A    between atoms: _789  and  _792
REMARK  319  A    between atoms: _792  and  _793
REMARK  320  A    between atoms: _803  and  _805
REMARK  321  A    between atoms: _805  and  _806
REMARK  322  A    between atoms: _805  and  _808
REMARK  323  A    between atoms: _808  and  _809
REMARK  324  A    between atoms: _809  and  _810
REMARK  325  A    between atoms: _810  and  _811
REMARK  326  A    between atoms: _820  and  _822
REMARK  327  A    between atoms: _822  and  _823
REMARK  328  A    between atoms: _826  and  _828
REMARK  329  A    between atoms: _828  and  _829
REMARK  330  A    between atoms: _828  and  _831
REMARK  331  A    between atoms: _831  and  _832
REMARK  332  A    between atoms: _837  and  _838
REMARK  333  A    between atoms: _840  and  _842
REMARK  334  A    between atoms: _842  and  _843
REMARK  335  A    between atoms: _842  and  _845
REMARK  336  A    between atoms: _845  and  _846
REMARK  337  A    between atoms: _849  and  _851
REMARK  338  A    between atoms: _851  and  _852
REMARK  339  A    between atoms: _854  and  _856
REMARK  340  A    between atoms: _856  and  _857
REMARK  341  A    between atoms: _856  and  _859
REMARK  342  A    between atoms: _859  and  _860
REMARK  343  A    between atoms: _863  and  _865
REMARK  344  A    between atoms: _865  and  _866
REMARK  345  A    between atoms: _865  and  _868
REMARK  346  A    between atoms: _868  and  _869
REMARK  347  A    between atoms: _870  and  _872
REMARK  348  A    between atoms: _872  and  _873
REMARK  349  A    between atoms: _872  and  _875
REMARK  350  A    between atoms: _878  and  _880
REMARK  351  A    between atoms: _880  and  _881
REMARK  352  A    between atoms: _880  and  _883
REMARK  353  A    between atoms: _883  and  _884
REMARK  354  A    between atoms: _884  and  _885
REMARK  355  A    between atoms: _888  and  _890
REMARK  356  A    between atoms: _890  and  _891
REMARK  357  A    between atoms: _890  and  _893
REMARK  358  A    between atoms: _893  and  _894
REMARK  359  A    between atoms: _904  and  _906
REMARK  360  A    between atoms: _906  and  _907
REMARK  361  A    between atoms: _906  and  _909
REMARK  362  A    between atoms: _909  and  _910
REMARK  363  A    between atoms: _913  and  _915
REMARK  364  A    between atoms: _915  and  _916
REMARK  365  A    between atoms: _915  and  _918
REMARK  366  A    between atoms: _918  and  _919
REMARK  367  A    between atoms: _919  and  _920
REMARK  368  A    between atoms: _920  and  _921
REMARK  369  A    between atoms: _930  and  _932
REMARK  370  A    between atoms: _932  and  _933
REMARK  371  A    between atoms: _932  and  _935
REMARK  372  A    between atoms: _935  and  _936
REMARK  373  A    between atoms: _941  and  _942
REMARK  374  A    between atoms: _944  and  _946
REMARK  375  A    between atoms: _946  and  _947
REMARK  376  A    between atoms: _946  and  _949
REMARK  377  A    between atoms: _949  and  _950
REMARK                            x       y       z     vdW  Elec       q    Type
REMARK                         _______ _______ _______ _____ _____    ______ ____
ROOT
ATOM      1  O   HOH     1      38.019  27.444  37.322  0.00  0.00    +0.000 OA
ENDROOT
TORSDOF 0
REMARK  Name = ../refined-set-2016/1xr9/1xr9_pocket.pdb
REMARK  377 active torsions:
REMARK  status: ('A' for Active; 'I' for Inactive)
REMARK    1  A    between atoms: _1  and  _3
REMARK    2  A    between atoms: _3  and  _4
REMARK    3  A    between atoms: _3  and  _6
REMARK    4  A    between atoms: _6  and  _7
REMARK    5  A    between atoms: _7  and  _8
REMARK    6  A    between atoms: _10  and  _12
REMARK    7  A    between atoms: _12  and  _13
REMARK    8  A    between atoms: _12  and  _15
REMARK    9  A    between atoms: _15  and  _16
REMARK   10  A    between atoms: _16  and  _17
REMARK   11  A    between atoms: _17  and  _18
REMARK   12  A    between atoms: _27  and  _29
REMARK   13  A    between atoms: _29  and  _30
REMARK   14  A    between atoms: _29  and  _32
REMARK   15  A    between atoms: _32  and  _33
REMARK   16  A    between atoms: _38  and  _39
REMARK   17  A    between atoms: _41  and  _43
REMARK   18  A    between atoms: _43  and  _44
REMARK   19  A    between atoms: _43  and  _46
REMARK   20  A    between atoms: _46  and  _47
REMARK   21  A    between atoms: _53  and  _55
REMARK   22  A    between atoms: _55  and  _56
REMARK   23  A    between atoms: _55  and  _58
REMARK   24  A    between atoms: _58  and  _59
REMARK   25  A    between atoms: _64  and  _65
REMARK   26  A    between atoms: _67  and  _69
REMARK   27  A    between atoms: _69  and  _70
REMARK   28  A    between atoms: _69  and  _72
REMARK   29  A    between atoms: _72  and  _73
REMARK   30  A    between atoms: _79  and  _81
REMARK   31  A    between atoms: _81  and  _82
REMARK   32  A    between atoms: _85  and  _87
REMARK   33  A    between atoms: _87  and  _88
REMARK   34  A    between atoms: _87  and  _90
REMARK   35  A    between atoms: _93  and  _95
REMARK   36  A    between atoms: _95  and  _96
REMARK   37  A    between atoms: _98  and  _100
REMARK   38  A    between atoms: _100  and  _101
REMARK   39  A    between atoms: _100  and  _103
REMARK   40  A    between atoms: _106  and  _108
REMARK   41  A    between atoms: _108  and  _109
REMARK   42  A    between atoms: _108  and  _111
REMARK   43  A    between atoms: _111  and  _112
REMARK   44  A    between atoms: _118  and  _120
REMARK   45  A    between atoms: _120  and  _121
REMARK   46  A    between atoms: _120  and  _123
REMARK   47  A    between atoms: _126  and  _128
REMARK   48  A    between atoms: _128  and  _129
REMARK   49  A    between atoms: _128  and  _131
REMARK   50  A    between atoms: _131  and  _132
REMARK   51  A    between atoms: _138  and  _140
REMARK   52  A    between atoms: _140  and  _141
REMARK   53  A    between atoms: _140  and  _143
REMARK   54  A    between atoms: _143  and  _144
REMARK   55  A    between atoms: _144  and  _145
REMARK   56  A    between atoms: _147  and  _149
REMARK   57  A    between atoms: _149  and  _150
REMARK   58  A    between atoms: _149  and  _152
REMARK   59  A    between atoms: _152  and  _153
REMARK   60  A    between atoms: _156  and  _158
REMARK   61  A    between atoms: _158  and  _159
REMARK   62  A    between atoms: _158  and  _161
REMARK   63  A    between atoms: _161  and  _162
REMARK   64  A    between atoms: _162  and  _163
REMARK   65  A    between atoms: _166  and  _168
REMARK   66  A    between atoms: _168  and  _169
REMARK   67  A    between atoms: _168  and  _171
REMARK   68  A    between atoms: _171  and  _172
REMARK   69  A    between atoms: _172  and  _173
REMARK   70  A    between atoms: _176  and  _178
REMARK   71  A    between atoms: _178  and  _179
REMARK   72  A    between atoms: _178  and  _181
REMARK   73  A    between atoms: _181  and  _182
REMARK   74  A    between atoms: _187  and  _188
REMARK   75  A    between atoms: _190  and  _192
REMARK   76  A    between atoms: _192  and  _193
REMARK   77  A    between atoms: _192  and  _195
REMARK   78  A    between atoms: _195  and  _196
REMARK   79  A    between atoms: _206  and  _208
REMARK   80  A    between atoms: _208  and  _209
REMARK   81  A    between atoms: _208  and  _211
REMARK   82  A    between atoms: _211  and  _212
REMARK   83  A    between atoms: _215  and  _217
REMARK   84  A    between atoms: _217  and  _218
REMARK   85  A    between atoms: _217  and  _220
REMARK   86  A    between atoms: _220  and  _221
REMARK   87  A    between atoms: _221  and  _222
REMARK   88  A    between atoms: _222  and  _223
REMARK   89  A    between atoms: _232  and  _234
REMARK   90  A    between atoms: _234  and  _235
REMARK   91  A    between atoms: _234  and  _237
REMARK   92  A    between atoms: _237  and  _238
REMARK   93  A    between atoms: _238  and  _239
REMARK   94  A    between atoms: _242  and  _244
REMARK   95  A    between atoms: _244  and  _245
REMARK   96  A    between atoms: _244  and  _247
REMARK   97  A    between atoms: _247  and  _248
REMARK   98  A    between atoms: _251  and  _253
REMARK   99  A    between atoms: _253  and  _254
REMARK  100  A    between atoms: _253  and  _256
REMARK  101  A    between atoms: _256  and  _257
REMARK  102  A    between atoms: _257  and  _258
REMARK  103  A    between atoms: _263  and  _265
REMARK  104  A    between atoms: _265  and  _266
REMARK  105  A    between atoms: _265  and  _268
REMARK  106  A    between atoms: _268  and  _269
REMARK  107  A    between atoms: _272  and  _274
REMARK  108  A    between atoms: _274  and  _275
REMARK  109  A    between atoms: _274  and  _277
REMARK  110  A    between atoms: _277  and  _278
REMARK  111  A    between atoms: _280  and  _282
REMARK  112  A    between atoms: _282  and  _283
REMARK  113  A    between atoms: _282  and  _285
REMARK  114  A    between atoms: _285  and  _286
REMARK  115  A    between atoms: _286  and  _287
REMARK  116  A    between atoms: _287  and  _288
REMARK  117  A    between atoms: _288  and  _289
REMARK  118  A    between atoms: _293  and  _295
REMARK  119  A    between atoms: _295  and  _296
REMARK  120  A    between atoms: _295  and  _298
REMARK  121  A    between atoms: _298  and  _299
REMARK  122  A    between atoms: _302  and  _304
REMARK  123  A    between atoms: _304  and  _305
REMARK  124  A    between atoms: _304  and  _307
REMARK  125  A    between atoms: _307  and  _308
REMARK  126  A    between atoms: _313  and  _315
REMARK  127  A    between atoms: _315  and  _316
REMARK  128  A    between atoms: _315  and  _318
REMARK  129  A    between atoms: _318  and  _319
REMARK  130  A    between atoms: _319  and  _320
REMARK  131  A    between atoms: _325  and  _327
REMARK  132  A    between atoms: _327  and  _328
REMARK  133  A    between atoms: _327  and  _330
REMARK  134  A    between atoms: _330  and  _331
REMARK  135  A    between atoms: _334  and  _336
REMARK  136  A    between atoms: _336  and  _337
REMARK  137  A    between atoms: _336  and  _339
REMARK  138  A    between atoms: _339  and  _340
REMARK  139  A    between atoms: _345  and  _346
REMARK  140  A    between atoms: _348  and  _350
REMARK  141  A    between atoms: _350  and  _351
REMARK  142  A    between atoms: _350  and  _353
REMARK  143  A    between atoms: _353  and  _354
REMARK  144  A    between atoms: _354  and  _355
REMARK  145  A    between atoms: _355  and  _356
REMARK  146  A    between atoms: _365  and  _367
REMARK  147  A    between atoms: _367  and  _368
REMARK  148  A    between atoms: _367  and  _370
REMARK  149  A    between atoms: _370  and  _371
REMARK  150  A    between atoms: _371  and  _372
REMARK  151  A    between atoms: _375  and  _377
REMARK  152  A    between atoms: _377  and  _378
REMARK  153  A    between atoms: _377  and  _380
REMARK  154  A    between atoms: _380  and  _381
REMARK  155  A    between atoms: _383  and  _385
REMARK  156  A    between atoms: _385  and  _386
REMARK  157  A    between atoms: _385  and  _388
REMARK  158  A    between atoms: _388  and  _389
REMARK  159  A    between atoms: _392  and  _394
REMARK  160  A    between atoms: _394  and  _395
REMARK  161  A    between atoms: _394  and  _397
REMARK  162  A    between atoms: _397  and  _398
REMARK  163  A    between atoms: _398  and  _399
REMARK  164  A    between atoms: _399  and  _400
REMARK  165  A    between atoms: _409  and  _411
REMARK  166  A    between atoms: _411  and  _412
REMARK  167  A    between atoms: _411  and  _414
REMARK  168  A    between atoms: _414  and  _415
REMARK  169  A    between atoms: _420  and  _422
REMARK  170  A    between atoms: _422  and  _423
REMARK  171  A    between atoms: _422  and  _425
REMARK  172  A    between atoms: _425  and  _426
REMARK  173  A    between atoms: _429  and  _431
REMARK  174  A    between atoms: _431  and  _432
REMARK  175  A    between atoms: _431  and  _434
REMARK  176  A    between atoms: _434  and  _435
REMARK  177  A    between atoms: _440  and  _441
REMARK  178  A    between atoms: _443  and  _445
REMARK  179  A    between atoms: _445  and  _446
REMARK  180  A    between atoms: _445  and  _448
REMARK  181  A    between atoms: _448  and  _449
REMARK  182  A    between atoms: _452  and  _454
REMARK  183  A    between atoms: _454  and  _455
REMARK  184  A    between atoms: _454  and  _457
REMARK  185  A    between atoms: _457  and  _458
REMARK  186  A    between atoms: _458  and  _459
REMARK  187  A    between atoms: _464  and  _466
REMARK  188  A    between atoms: _466  and  _467
REMARK  189  A    between atoms: _466  and  _469
REMARK  190  A    between atoms: _469  and  _470
REMARK  191  A    between atoms: _470  and  _471
REMARK  192  A    between atoms: _471  and  _472
REMARK  193  A    between atoms: _481  and  _483
REMARK  194  A    between atoms: _483  and  _484
REMARK  195  A    between atoms: _483  and  _486
REMARK  196  A    between atoms: _486  and  _487
REMARK  197  A    between atoms: _487  and  _488
REMARK  198  A    between atoms: _490  and  _492
REMARK  199  A    between atoms: _492  and  _493
REMARK  200  A    between atoms: _492  and  _495
REMARK  201  A    between atoms: _495  and  _496
REMARK  202  A    between atoms: _501  and  _502
REMARK  203  A    between atoms: _504  and  _506
REMARK  204  A    between atoms: _506  and  _507
REMARK  205  A    between atoms: _509  and  _511
REMARK  206  A    between atoms: _511  and  _512
REMARK  207  A    between atoms: _511  and  _514
REMARK  208  A    between atoms: _514  and  _515
REMARK  209  A    between atoms: _515  and  _869
REMARK  210  A    between atoms: _516  and  _518
REMARK  211  A    between atoms: _518  and  _519
REMARK  212  A    between atoms: _518  and  _521
REMARK  213  A    between atoms: _521  and  _522
REMARK  214  A    between atoms: _525  and  _527
REMARK  215  A    between atoms: _527  and  _528
REMARK  216  A    between atoms: _527  and  _530
REMARK  217  A    between atoms: _530  and  _531
REMARK  218  A    between atoms: _531  and  _532
REMARK  219  A    between atoms: _537  and  _539
REMARK  220  A    between atoms: _539  and  _540
REMARK  221  A    between atoms: _539  and  _542
REMARK  222  A    between atoms: _542  and  _543
REMARK  223  A    between atoms: _545  and  _547
REMARK  224  A    between atoms: _547  and  _548
REMARK  225  A    between atoms: _551  and  _553
REMARK  226  A    between atoms: _553  and  _554
REMARK  227  A    between atoms: _553  and  _556
REMARK  228  A    between atoms: _556  and  _557
REMARK  229  A    between atoms: _562  and  _563
REMARK  230  A    between atoms: _565  and  _567
REMARK  231  A    between atoms: _567  and  _568
REMARK  232  A    between atoms: _567  and  _570
REMARK  233  A    between atoms: _570  and  _571
REMARK  234  A    between atoms: _576  and  _577
REMARK  235  A    between atoms: _579  and  _581
REMARK  236  A    between atoms: _581  and  _582
REMARK  237  A    between atoms: _581  and  _584
REMARK  238  A    between atoms: _584  and  _585
REMARK  239  A    between atoms: _588  and  _590
REMARK  240  A    between atoms: _590  and  _591
REMARK  241  A    between atoms: _594  and  _596
REMARK  242  A    between atoms: _596  and  _597
REMARK  243  A    between atoms: _596  and  _599
REMARK  244  A    between atoms: _599  and  _600
REMARK  245  A    between atoms: _610  and  _612
REMARK  246  A    between atoms: _612  and  _613
REMARK  247  A    between atoms: _616  and  _618
REMARK  248  A    between atoms: _618  and  _619
REMARK  249  A    between atoms: _622  and  _624
REMARK  250  A    between atoms: _624  and  _625
REMARK  251  A    between atoms: _624  and  _627
REMARK  252  A    between atoms: _627  and  _628
REMARK  253  A    between atoms: _628  and  _629
REMARK  254  A    between atoms: _634  and  _636
REMARK  255  A    between atoms: _636  and  _637
REMARK  256  A    between atoms: _636  and  _639
REMARK  257  A    between atoms: _639  and  _640
REMARK  258  A    between atoms: _643  and  _645
REMARK  259  A    between atoms: _645  and  _646
REMARK  260  A    between atoms: _645  and  _648
REMARK  261  A    between atoms: _648  and  _649
REMARK  262  A    between atoms: _652  and  _654
REMARK  263  A    between atoms: _654  and  _655
REMARK  264  A    between atoms: _654  and  _657
REMARK  265  A    between atoms: _657  and  _658
REMARK  266  A    between atoms: _658  and  _659
REMARK  267  A    between atoms: _664  and  _666
REMARK  268  A    between atoms: _666  and  _667
REMARK  269  A    between atoms: _666  and  _669
REMARK  270  A    between atoms: _669  and  _670
REMARK  271  A    between atoms: _670  and  _671
REMARK  272  A    between atoms: _671  and  _672
REMARK  273  A    between atoms: _681  and  _683
REMARK  274  A    between atoms: _683  and  _684
REMARK  275  A    between atoms: _683  and  _686
REMARK  276  A    between atoms: _686  and  _687
REMARK  277  A    between atoms: _687  and  _688
REMARK  278  A    between atoms: _688  and  _689
REMARK  279  A    between atoms: _689  and  _690
REMARK  280  A    between atoms: _694  and  _696
REMARK  281  A    between atoms: _696  and  _697
REMARK  282  A    between atoms: _696  and  _699
REMARK  283  A    between atoms: _699  and  _700
REMARK  284  A    between atoms: _710  and  _712
REMARK  285  A    between atoms: _712  and  _713
REMARK  286  A    between atoms: _712  and  _715
REMARK  287  A    between atoms: _715  and  _716
REMARK  288  A    between atoms: _716  and  _717
REMARK  289  A    between atoms: _720  and  _722
REMARK  290  A    between atoms: _722  and  _723
REMARK  291  A    between atoms: _726  and  _728
REMARK  292  A    between atoms: _728  and  _729
REMARK  293  A    between atoms: _732  and  _734
REMARK  294  A    between atoms: _734  and  _735
REMARK  295  A    between atoms: _734  and  _737
REMARK  296  A    between atoms: _737  and  _738
REMARK  297  A    between atoms: _738  and  _739
REMARK  298  A    between atoms: _739  and  _740
REMARK  299  A    between atoms: _749  and  _751
REMARK  300  A    between atoms: _751  and  _752
REMARK  301  A    between atoms: _751  and  _754
REMARK  302  A    between atoms: _754  and  _755
REMARK  303  A    between atoms: _755  and  _756
REMARK  304  A    between atoms: _759  and  _761
REMARK  305  A    between atoms: _761  and  _762
REMARK  306  A    between atoms: _765  and  _767
REMARK  307  A    between atoms: _767  and  _768
REMARK  308  A    between atoms: _767  and  _770
REMARK  309  A    between atoms: _770  and  _771
REMARK  310  A    between atoms: _771  and  _772
REMARK  311  A    between atoms: _775  and  _777
REMARK  312  A    between atoms: _777  and  _778
REMARK  313  A    between atoms: _777  and  _780
REMARK  314  A    between atoms: _780  and  _781
REMARK  315  A    between atoms: _781  and  _782
REMARK  316  A    between atoms: _787  and  _789
REMARK  317  A    between atoms: _789  and  _790
REMARK  318  A    between atoms: _789  and  _792
REMARK  319  A    between atoms: _792  and  _793
REMARK  320  A    between atoms: _803  and  _805
REMARK  321  A    between atoms: _805  and  _806
REMARK  322  A    between atoms: _805  and  _808
REMARK  323  A    between atoms: _808  and  _809
REMARK  324  A    between atoms: _809  and  _810
REMARK  325  A    between atoms: _810  and  _811
REMARK  326  A    between atoms: _820  and  _822
REMARK  327  A    between atoms: _822  and  _823
REMARK  328  A    between atoms: _826  and  _828
REMARK  329  A    between atoms: _828  and  _829
REMARK  330  A    between atoms: _828  and  _831
REMARK  331  A    between atoms: _831  and  _832
REMARK  332  A    between atoms: _837  and  _838
REMARK  333  A    between atoms: _840  and  _842
REMARK  334  A    between atoms: _842  and  _843
REMARK  335  A    between atoms: _842  and  _845
REMARK  336  A    between atoms: _845  and  _846
REMARK  337  A    between atoms: _849  and  _851
REMARK  338  A    between atoms: _851  and  _852
REMARK  339  A    between atoms: _854  and  _856
REMARK  340  A    between atoms: _856  and  _857
REMARK  341  A    between atoms: _856  and  _859
REMARK  342  A    between atoms: _859  and  _860
REMARK  343  A    between atoms: _863  and  _865
REMARK  344  A    between atoms: _865  and  _866
REMARK  345  A    between atoms: _865  and  _868
REMARK  346  A    between atoms: _868  and  _869
REMARK  347  A    between atoms: _870  and  _872
REMARK  348  A    between atoms: _872  and  _873
REMARK  349  A    between atoms: _872  and  _875
REMARK  350  A    between atoms: _878  and  _880
REMARK  351  A    between atoms: _880  and  _881
REMARK  352  A    between atoms: _880  and  _883
REMARK  353  A    between atoms: _883  and  _884
REMARK  354  A    between atoms: _884  and  _885
REMARK  355  A    between atoms: _888  and  _890
REMARK  356  A    between atoms: _890  and  _891
REMARK  357  A    between atoms: _890  and  _893
REMARK  358  A    between atoms: _893  and  _894
REMARK  359  A    between atoms: _904  and  _906
REMARK  360  A    between atoms: _906  and  _907
REMARK  361  A    between atoms: _906  and  _909
REMARK  362  A    between atoms: _909  and  _910
REMARK  363  A    between atoms: _913  and  _915
REMARK  364  A    between atoms: _915  and  _916
REMARK  365  A    between atoms: _915  and  _918
REMARK  366  A    between atoms: _918  and  _919
REMARK  367  A    between atoms: _919  and  _920
REMARK  368  A    between atoms: _920  and  _921
REMARK  369  A    between atoms: _930  and  _932
REMARK  370  A    between atoms: _932  and  _933
REMARK  371  A    between atoms: _932  and  _935
REMARK  372  A    between atoms: _935  and  _936
REMARK  373  A    between atoms: _941  and  _942
REMARK  374  A    between atoms: _944  and  _946
REMARK  375  A    between atoms: _946  and  _947
REMARK  376  A    between atoms: _946  and  _949
REMARK  377  A    between atoms: _949  and  _950
REMARK                            x       y       z     vdW  Elec       q    Type
REMARK                         _______ _______ _______ _____ _____    ______ ____
ROOT
ATOM      1  O   HOH     1      28.902  29.105  33.669  0.00  0.00    +0.000 OA
ENDROOT
TORSDOF 0
REMARK  Name = ../refined-set-2016/1xr9/1xr9_pocket.pdb
REMARK  377 active torsions:
REMARK  status: ('A' for Active; 'I' for Inactive)
REMARK    1  A    between atoms: _1  and  _3
REMARK    2  A    between atoms: _3  and  _4
REMARK    3  A    between atoms: _3  and  _6
REMARK    4  A    between atoms: _6  and  _7
REMARK    5  A    between atoms: _7  and  _8
REMARK    6  A    between atoms: _10  and  _12
REMARK    7  A    between atoms: _12  and  _13
REMARK    8  A    between atoms: _12  and  _15
REMARK    9  A    between atoms: _15  and  _16
REMARK   10  A    between atoms: _16  and  _17
REMARK   11  A    between atoms: _17  and  _18
REMARK   12  A    between atoms: _27  and  _29
REMARK   13  A    between atoms: _29  and  _30
REMARK   14  A    between atoms: _29  and  _32
REMARK   15  A    between atoms: _32  and  _33
REMARK   16  A    between atoms: _38  and  _39
REMARK   17  A    between atoms: _41  and  _43
REMARK   18  A    between atoms: _43  and  _44
REMARK   19  A    between atoms: _43  and  _46
REMARK   20  A    between atoms: _46  and  _47
REMARK   21  A    between atoms: _53  and  _55
REMARK   22  A    between atoms: _55  and  _56
REMARK   23  A    between atoms: _55  and  _58
REMARK   24  A    between atoms: _58  and  _59
REMARK   25  A    between atoms: _64  and  _65
REMARK   26  A    between atoms: _67  and  _69
REMARK   27  A    between atoms: _69  and  _70
REMARK   28  A    between atoms: _69  and  _72
REMARK   29  A    between atoms: _72  and  _73
REMARK   30  A    between atoms: _79  and  _81
REMARK   31  A    between atoms: _81  and  _82
REMARK   32  A    between atoms: _85  and  _87
REMARK   33  A    between atoms: _87  and  _88
REMARK   34  A    between atoms: _87  and  _90
REMARK   35  A    between atoms: _93  and  _95
REMARK   36  A    between atoms: _95  and  _96
REMARK   37  A    between atoms: _98  and  _100
REMARK   38  A    between atoms: _100  and  _101
REMARK   39  A    between atoms: _100  and  _103
REMARK   40  A    between atoms: _106  and  _108
REMARK   41  A    between atoms: _108  and  _109
REMARK   42  A    between atoms: _108  and  _111
REMARK   43  A    between atoms: _111  and  _112
REMARK   44  A    between atoms: _118  and  _120
REMARK   45  A    between atoms: _120  and  _121
REMARK   46  A    between atoms: _120  and  _123
REMARK   47  A    between atoms: _126  and  _128
REMARK   48  A    between atoms: _128  and  _129
REMARK   49  A    between atoms: _128  and  _131
REMARK   50  A    between atoms: _131  and  _132
REMARK   51  A    between atoms: _138  and  _140
REMARK   52  A    between atoms: _140  and  _141
REMARK   53  A    between atoms: _140  and  _143
REMARK   54  A    between atoms: _143  and  _144
REMARK   55  A    between atoms: _144  and  _145
REMARK   56  A    between atoms: _147  and  _149
REMARK   57  A    between atoms: _149  and  _150
REMARK   58  A    between atoms: _149  and  _152
REMARK   59  A    between atoms: _152  and  _153
REMARK   60  A    between atoms: _156  and  _158
REMARK   61  A    between atoms: _158  and  _159
REMARK   62  A    between atoms: _158  and  _161
REMARK   63  A    between atoms: _161  and  _162
REMARK   64  A    between atoms: _162  and  _163
REMARK   65  A    between atoms: _166  and  _168
REMARK   66  A    between atoms: _168  and  _169
REMARK   67  A    between atoms: _168  and  _171
REMARK   68  A    between atoms: _171  and  _172
REMARK   69  A    between atoms: _172  and  _173
REMARK   70  A    between atoms: _176  and  _178
REMARK   71  A    between atoms: _178  and  _179
REMARK   72  A    between atoms: _178  and  _181
REMARK   73  A    between atoms: _181  and  _182
REMARK   74  A    between atoms: _187  and  _188
REMARK   75  A    between atoms: _190  and  _192
REMARK   76  A    between atoms: _192  and  _193
REMARK   77  A    between atoms: _192  and  _195
REMARK   78  A    between atoms: _195  and  _196
REMARK   79  A    between atoms: _206  and  _208
REMARK   80  A    between atoms: _208  and  _209
REMARK   81  A    between atoms: _208  and  _211
REMARK   82  A    between atoms: _211  and  _212
REMARK   83  A    between atoms: _215  and  _217
REMARK   84  A    between atoms: _217  and  _218
REMARK   85  A    between atoms: _217  and  _220
REMARK   86  A    between atoms: _220  and  _221
REMARK   87  A    between atoms: _221  and  _222
REMARK   88  A    between atoms: _222  and  _223
REMARK   89  A    between atoms: _232  and  _234
REMARK   90  A    between atoms: _234  and  _235
REMARK   91  A    between atoms: _234  and  _237
REMARK   92  A    between atoms: _237  and  _238
REMARK   93  A    between atoms: _238  and  _239
REMARK   94  A    between atoms: _242  and  _244
REMARK   95  A    between atoms: _244  and  _245
REMARK   96  A    between atoms: _244  and  _247
REMARK   97  A    between atoms: _247  and  _248
REMARK   98  A    between atoms: _251  and  _253
REMARK   99  A    between atoms: _253  and  _254
REMARK  100  A    between atoms: _253  and  _256
REMARK  101  A    between atoms: _256  and  _257
REMARK  102  A    between atoms: _257  and  _258
REMARK  103  A    between atoms: _263  and  _265
REMARK  104  A    between atoms: _265  and  _266
REMARK  105  A    between atoms: _265  and  _268
REMARK  106  A    between atoms: _268  and  _269
REMARK  107  A    between atoms: _272  and  _274
REMARK  108  A    between atoms: _274  and  _275
REMARK  109  A    between atoms: _274  and  _277
REMARK  110  A    between atoms: _277  and  _278
REMARK  111  A    between atoms: _280  and  _282
REMARK  112  A    between atoms: _282  and  _283
REMARK  113  A    between atoms: _282  and  _285
REMARK  114  A    between atoms: _285  and  _286
REMARK  115  A    between atoms: _286  and  _287
REMARK  116  A    between atoms: _287  and  _288
REMARK  117  A    between atoms: _288  and  _289
REMARK  118  A    between atoms: _293  and  _295
REMARK  119  A    between atoms: _295  and  _296
REMARK  120  A    between atoms: _295  and  _298
REMARK  121  A    between atoms: _298  and  _299
REMARK  122  A    between atoms: _302  and  _304
REMARK  123  A    between atoms: _304  and  _305
REMARK  124  A    between atoms: _304  and  _307
REMARK  125  A    between atoms: _307  and  _308
REMARK  126  A    between atoms: _313  and  _315
REMARK  127  A    between atoms: _315  and  _316
REMARK  128  A    between atoms: _315  and  _318
REMARK  129  A    between atoms: _318  and  _319
REMARK  130  A    between atoms: _319  and  _320
REMARK  131  A    between atoms: _325  and  _327
REMARK  132  A    between atoms: _327  and  _328
REMARK  133  A    between atoms: _327  and  _330
REMARK  134  A    between atoms: _330  and  _331
REMARK  135  A    between atoms: _334  and  _336
REMARK  136  A    between atoms: _336  and  _337
REMARK  137  A    between atoms: _336  and  _339
REMARK  138  A    between atoms: _339  and  _340
REMARK  139  A    between atoms: _345  and  _346
REMARK  140  A    between atoms: _348  and  _350
REMARK  141  A    between atoms: _350  and  _351
REMARK  142  A    between atoms: _350  and  _353
REMARK  143  A    between atoms: _353  and  _354
REMARK  144  A    between atoms: _354  and  _355
REMARK  145  A    between atoms: _355  and  _356
REMARK  146  A    between atoms: _365  and  _367
REMARK  147  A    between atoms: _367  and  _368
REMARK  148  A    between atoms: _367  and  _370
REMARK  149  A    between atoms: _370  and  _371
REMARK  150  A    between atoms: _371  and  _372
REMARK  151  A    between atoms: _375  and  _377
REMARK  152  A    between atoms: _377  and  _378
REMARK  153  A    between atoms: _377  and  _380
REMARK  154  A    between atoms: _380  and  _381
REMARK  155  A    between atoms: _383  and  _385
REMARK  156  A    between atoms: _385  and  _386
REMARK  157  A    between atoms: _385  and  _388
REMARK  158  A    between atoms: _388  and  _389
REMARK  159  A    between atoms: _392  and  _394
REMARK  160  A    between atoms: _394  and  _395
REMARK  161  A    between atoms: _394  and  _397
REMARK  162  A    between atoms: _397  and  _398
REMARK  163  A    between atoms: _398  and  _399
REMARK  164  A    between atoms: _399  and  _400
REMARK  165  A    between atoms: _409  and  _411
REMARK  166  A    between atoms: _411  and  _412
REMARK  167  A    between atoms: _411  and  _414
REMARK  168  A    between atoms: _414  and  _415
REMARK  169  A    between atoms: _420  and  _422
REMARK  170  A    between atoms: _422  and  _423
REMARK  171  A    between atoms: _422  and  _425
REMARK  172  A    between atoms: _425  and  _426
REMARK  173  A    between atoms: _429  and  _431
REMARK  174  A    between atoms: _431  and  _432
REMARK  175  A    between atoms: _431  and  _434
REMARK  176  A    between atoms: _434  and  _435
REMARK  177  A    between atoms: _440  and  _441
REMARK  178  A    between atoms: _443  and  _445
REMARK  179  A    between atoms: _445  and  _446
REMARK  180  A    between atoms: _445  and  _448
REMARK  181  A    between atoms: _448  and  _449
REMARK  182  A    between atoms: _452  and  _454
REMARK  183  A    between atoms: _454  and  _455
REMARK  184  A    between atoms: _454  and  _457
REMARK  185  A    between atoms: _457  and  _458
REMARK  186  A    between atoms: _458  and  _459
REMARK  187  A    between atoms: _464  and  _466
REMARK  188  A    between atoms: _466  and  _467
REMARK  189  A    between atoms: _466  and  _469
REMARK  190  A    between atoms: _469  and  _470
REMARK  191  A    between atoms: _470  and  _471
REMARK  192  A    between atoms: _471  and  _472
REMARK  193  A    between atoms: _481  and  _483
REMARK  194  A    between atoms: _483  and  _484
REMARK  195  A    between atoms: _483  and  _486
REMARK  196  A    between atoms: _486  and  _487
REMARK  197  A    between atoms: _487  and  _488
REMARK  198  A    between atoms: _490  and  _492
REMARK  199  A    between atoms: _492  and  _493
REMARK  200  A    between atoms: _492  and  _495
REMARK  201  A    between atoms: _495  and  _496
REMARK  202  A    between atoms: _501  and  _502
REMARK  203  A    between atoms: _504  and  _506
REMARK  204  A    between atoms: _506  and  _507
REMARK  205  A    between atoms: _509  and  _511
REMARK  206  A    between atoms: _511  and  _512
REMARK  207  A    between atoms: _511  and  _514
REMARK  208  A    between atoms: _514  and  _515
REMARK  209  A    between atoms: _515  and  _869
REMARK  210  A    between atoms: _516  and  _518
REMARK  211  A    between atoms: _518  and  _519
REMARK  212  A    between atoms: _518  and  _521
REMARK  213  A    between atoms: _521  and  _522
REMARK  214  A    between atoms: _525  and  _527
REMARK  215  A    between atoms: _527  and  _528
REMARK  216  A    between atoms: _527  and  _530
REMARK  217  A    between atoms: _530  and  _531
REMARK  218  A    between atoms: _531  and  _532
REMARK  219  A    between atoms: _537  and  _539
REMARK  220  A    between atoms: _539  and  _540
REMARK  221  A    between atoms: _539  and  _542
REMARK  222  A    between atoms: _542  and  _543
REMARK  223  A    between atoms: _545  and  _547
REMARK  224  A    between atoms: _547  and  _548
REMARK  225  A    between atoms: _551  and  _553
REMARK  226  A    between atoms: _553  and  _554
REMARK  227  A    between atoms: _553  and  _556
REMARK  228  A    between atoms: _556  and  _557
REMARK  229  A    between atoms: _562  and  _563
REMARK  230  A    between atoms: _565  and  _567
REMARK  231  A    between atoms: _567  and  _568
REMARK  232  A    between atoms: _567  and  _570
REMARK  233  A    between atoms: _570  and  _571
REMARK  234  A    between atoms: _576  and  _577
REMARK  235  A    between atoms: _579  and  _581
REMARK  236  A    between atoms: _581  and  _582
REMARK  237  A    between atoms: _581  and  _584
REMARK  238  A    between atoms: _584  and  _585
REMARK  239  A    between atoms: _588  and  _590
REMARK  240  A    between atoms: _590  and  _591
REMARK  241  A    between atoms: _594  and  _596
REMARK  242  A    between atoms: _596  and  _597
REMARK  243  A    between atoms: _596  and  _599
REMARK  244  A    between atoms: _599  and  _600
REMARK  245  A    between atoms: _610  and  _612
REMARK  246  A    between atoms: _612  and  _613
REMARK  247  A    between atoms: _616  and  _618
REMARK  248  A    between atoms: _618  and  _619
REMARK  249  A    between atoms: _622  and  _624
REMARK  250  A    between atoms: _624  and  _625
REMARK  251  A    between atoms: _624  and  _627
REMARK  252  A    between atoms: _627  and  _628
REMARK  253  A    between atoms: _628  and  _629
REMARK  254  A    between atoms: _634  and  _636
REMARK  255  A    between atoms: _636  and  _637
REMARK  256  A    between atoms: _636  and  _639
REMARK  257  A    between atoms: _639  and  _640
REMARK  258  A    between atoms: _643  and  _645
REMARK  259  A    between atoms: _645  and  _646
REMARK  260  A    between atoms: _645  and  _648
REMARK  261  A    between atoms: _648  and  _649
REMARK  262  A    between atoms: _652  and  _654
REMARK  263  A    between atoms: _654  and  _655
REMARK  264  A    between atoms: _654  and  _657
REMARK  265  A    between atoms: _657  and  _658
REMARK  266  A    between atoms: _658  and  _659
REMARK  267  A    between atoms: _664  and  _666
REMARK  268  A    between atoms: _666  and  _667
REMARK  269  A    between atoms: _666  and  _669
REMARK  270  A    between atoms: _669  and  _670
REMARK  271  A    between atoms: _670  and  _671
REMARK  272  A    between atoms: _671  and  _672
REMARK  273  A    between atoms: _681  and  _683
REMARK  274  A    between atoms: _683  and  _684
REMARK  275  A    between atoms: _683  and  _686
REMARK  276  A    between atoms: _686  and  _687
REMARK  277  A    between atoms: _687  and  _688
REMARK  278  A    between atoms: _688  and  _689
REMARK  279  A    between atoms: _689  and  _690
REMARK  280  A    between atoms: _694  and  _696
REMARK  281  A    between atoms: _696  and  _697
REMARK  282  A    between atoms: _696  and  _699
REMARK  283  A    between atoms: _699  and  _700
REMARK  284  A    between atoms: _710  and  _712
REMARK  285  A    between atoms: _712  and  _713
REMARK  286  A    between atoms: _712  and  _715
REMARK  287  A    between atoms: _715  and  _716
REMARK  288  A    between atoms: _716  and  _717
REMARK  289  A    between atoms: _720  and  _722
REMARK  290  A    between atoms: _722  and  _723
REMARK  291  A    between atoms: _726  and  _728
REMARK  292  A    between atoms: _728  and  _729
REMARK  293  A    between atoms: _732  and  _734
REMARK  294  A    between atoms: _734  and  _735
REMARK  295  A    between atoms: _734  and  _737
REMARK  296  A    between atoms: _737  and  _738
REMARK  297  A    between atoms: _738  and  _739
REMARK  298  A    between atoms: _739  and  _740
REMARK  299  A    between atoms: _749  and  _751
REMARK  300  A    between atoms: _751  and  _752
REMARK  301  A    between atoms: _751  and  _754
REMARK  302  A    between atoms: _754  and  _755
REMARK  303  A    between atoms: _755  and  _756
REMARK  304  A    between atoms: _759  and  _761
REMARK  305  A    between atoms: _761  and  _762
REMARK  306  A    between atoms: _765  and  _767
REMARK  307  A    between atoms: _767  and  _768
REMARK  308  A    between atoms: _767  and  _770
REMARK  309  A    between atoms: _770  and  _771
REMARK  310  A    between atoms: _771  and  _772
REMARK  311  A    between atoms: _775  and  _777
REMARK  312  A    between atoms: _777  and  _778
REMARK  313  A    between atoms: _777  and  _780
REMARK  314  A    between atoms: _780  and  _781
REMARK  315  A    between atoms: _781  and  _782
REMARK  316  A    between atoms: _787  and  _789
REMARK  317  A    between atoms: _789  and  _790
REMARK  318  A    between atoms: _789  and  _792
REMARK  319  A    between atoms: _792  and  _793
REMARK  320  A    between atoms: _803  and  _805
REMARK  321  A    between atoms: _805  and  _806
REMARK  322  A    between atoms: _805  and  _808
REMARK  323  A    between atoms: _808  and  _809
REMARK  324  A    between atoms: _809  and  _810
REMARK  325  A    between atoms: _810  and  _811
REMARK  326  A    between atoms: _820  and  _822
REMARK  327  A    between atoms: _822  and  _823
REMARK  328  A    between atoms: _826  and  _828
REMARK  329  A    between atoms: _828  and  _829
REMARK  330  A    between atoms: _828  and  _831
REMARK  331  A    between atoms: _831  and  _832
REMARK  332  A    between atoms: _837  and  _838
REMARK  333  A    between atoms: _840  and  _842
REMARK  334  A    between atoms: _842  and  _843
REMARK  335  A    between atoms: _842  and  _845
REMARK  336  A    between atoms: _845  and  _846
REMARK  337  A    between atoms: _849  and  _851
REMARK  338  A    between atoms: _851  and  _852
REMARK  339  A    between atoms: _854  and  _856
REMARK  340  A    between atoms: _856  and  _857
REMARK  341  A    between atoms: _856  and  _859
REMARK  342  A    between atoms: _859  and  _860
REMARK  343  A    between atoms: _863  and  _865
REMARK  344  A    between atoms: _865  and  _866
REMARK  345  A    between atoms: _865  and  _868
REMARK  346  A    between atoms: _868  and  _869
REMARK  347  A    between atoms: _870  and  _872
REMARK  348  A    between atoms: _872  and  _873
REMARK  349  A    between atoms: _872  and  _875
REMARK  350  A    between atoms: _878  and  _880
REMARK  351  A    between atoms: _880  and  _881
REMARK  352  A    between atoms: _880  and  _883
REMARK  353  A    between atoms: _883  and  _884
REMARK  354  A    between atoms: _884  and  _885
REMARK  355  A    between atoms: _888  and  _890
REMARK  356  A    between atoms: _890  and  _891
REMARK  357  A    between atoms: _890  and  _893
REMARK  358  A    between atoms: _893  and  _894
REMARK  359  A    between atoms: _904  and  _906
REMARK  360  A    between atoms: _906  and  _907
REMARK  361  A    between atoms: _906  and  _909
REMARK  362  A    between atoms: _909  and  _910
REMARK  363  A    between atoms: _913  and  _915
REMARK  364  A    between atoms: _915  and  _916
REMARK  365  A    between atoms: _915  and  _918
REMARK  366  A    between atoms: _918  and  _919
REMARK  367  A    between atoms: _919  and  _920
REMARK  368  A    between atoms: _920  and  _921
REMARK  369  A    between atoms: _930  and  _932
REMARK  370  A    between atoms: _932  and  _933
REMARK  371  A    between atoms: _932  and  _935
REMARK  372  A    between atoms: _935  and  _936
REMARK  373  A    between atoms: _941  and  _942
REMARK  374  A    between atoms: _944  and  _946
REMARK  375  A    between atoms: _946  and  _947
REMARK  376  A    between atoms: _946  and  _949
REMARK  377  A    between atoms: _949  and  _950
REMARK                            x       y       z     vdW  Elec       q    Type
REMARK                         _______ _______ _______ _____ _____    ______ ____
ROOT
ATOM      1  O   HOH     1      36.099  25.481  37.342  0.00  0.00    +0.000 OA
ENDROOT
TORSDOF 0
REMARK  Name = ../refined-set-2016/1xr9/1xr9_pocket.pdb
REMARK  377 active torsions:
REMARK  status: ('A' for Active; 'I' for Inactive)
REMARK    1  A    between atoms: _1  and  _3
REMARK    2  A    between atoms: _3  and  _4
REMARK    3  A    between atoms: _3  and  _6
REMARK    4  A    between atoms: _6  and  _7
REMARK    5  A    between atoms: _7  and  _8
REMARK    6  A    between atoms: _10  and  _12
REMARK    7  A    between atoms: _12  and  _13
REMARK    8  A    between atoms: _12  and  _15
REMARK    9  A    between atoms: _15  and  _16
REMARK   10  A    between atoms: _16  and  _17
REMARK   11  A    between atoms: _17  and  _18
REMARK   12  A    between atoms: _27  and  _29
REMARK   13  A    between atoms: _29  and  _30
REMARK   14  A    between atoms: _29  and  _32
REMARK   15  A    between atoms: _32  and  _33
REMARK   16  A    between atoms: _38  and  _39
REMARK   17  A    between atoms: _41  and  _43
REMARK   18  A    between atoms: _43  and  _44
REMARK   19  A    between atoms: _43  and  _46
REMARK   20  A    between atoms: _46  and  _47
REMARK   21  A    between atoms: _53  and  _55
REMARK   22  A    between atoms: _55  and  _56
REMARK   23  A    between atoms: _55  and  _58
REMARK   24  A    between atoms: _58  and  _59
REMARK   25  A    between atoms: _64  and  _65
REMARK   26  A    between atoms: _67  and  _69
REMARK   27  A    between atoms: _69  and  _70
REMARK   28  A    between atoms: _69  and  _72
REMARK   29  A    between atoms: _72  and  _73
REMARK   30  A    between atoms: _79  and  _81
REMARK   31  A    between atoms: _81  and  _82
REMARK   32  A    between atoms: _85  and  _87
REMARK   33  A    between atoms: _87  and  _88
REMARK   34  A    between atoms: _87  and  _90
REMARK   35  A    between atoms: _93  and  _95
REMARK   36  A    between atoms: _95  and  _96
REMARK   37  A    between atoms: _98  and  _100
REMARK   38  A    between atoms: _100  and  _101
REMARK   39  A    between atoms: _100  and  _103
REMARK   40  A    between atoms: _106  and  _108
REMARK   41  A    between atoms: _108  and  _109
REMARK   42  A    between atoms: _108  and  _111
REMARK   43  A    between atoms: _111  and  _112
REMARK   44  A    between atoms: _118  and  _120
REMARK   45  A    between atoms: _120  and  _121
REMARK   46  A    between atoms: _120  and  _123
REMARK   47  A    between atoms: _126  and  _128
REMARK   48  A    between atoms: _128  and  _129
REMARK   49  A    between atoms: _128  and  _131
REMARK   50  A    between atoms: _131  and  _132
REMARK   51  A    between atoms: _138  and  _140
REMARK   52  A    between atoms: _140  and  _141
REMARK   53  A    between atoms: _140  and  _143
REMARK   54  A    between atoms: _143  and  _144
REMARK   55  A    between atoms: _144  and  _145
REMARK   56  A    between atoms: _147  and  _149
REMARK   57  A    between atoms: _149  and  _150
REMARK   58  A    between atoms: _149  and  _152
REMARK   59  A    between atoms: _152  and  _153
REMARK   60  A    between atoms: _156  and  _158
REMARK   61  A    between atoms: _158  and  _159
REMARK   62  A    between atoms: _158  and  _161
REMARK   63  A    between atoms: _161  and  _162
REMARK   64  A    between atoms: _162  and  _163
REMARK   65  A    between atoms: _166  and  _168
REMARK   66  A    between atoms: _168  and  _169
REMARK   67  A    between atoms: _168  and  _171
REMARK   68  A    between atoms: _171  and  _172
REMARK   69  A    between atoms: _172  and  _173
REMARK   70  A    between atoms: _176  and  _178
REMARK   71  A    between atoms: _178  and  _179
REMARK   72  A    between atoms: _178  and  _181
REMARK   73  A    between atoms: _181  and  _182
REMARK   74  A    between atoms: _187  and  _188
REMARK   75  A    between atoms: _190  and  _192
REMARK   76  A    between atoms: _192  and  _193
REMARK   77  A    between atoms: _192  and  _195
REMARK   78  A    between atoms: _195  and  _196
REMARK   79  A    between atoms: _206  and  _208
REMARK   80  A    between atoms: _208  and  _209
REMARK   81  A    between atoms: _208  and  _211
REMARK   82  A    between atoms: _211  and  _212
REMARK   83  A    between atoms: _215  and  _217
REMARK   84  A    between atoms: _217  and  _218
REMARK   85  A    between atoms: _217  and  _220
REMARK   86  A    between atoms: _220  and  _221
REMARK   87  A    between atoms: _221  and  _222
REMARK   88  A    between atoms: _222  and  _223
REMARK   89  A    between atoms: _232  and  _234
REMARK   90  A    between atoms: _234  and  _235
REMARK   91  A    between atoms: _234  and  _237
REMARK   92  A    between atoms: _237  and  _238
REMARK   93  A    between atoms: _238  and  _239
REMARK   94  A    between atoms: _242  and  _244
REMARK   95  A    between atoms: _244  and  _245
REMARK   96  A    between atoms: _244  and  _247
REMARK   97  A    between atoms: _247  and  _248
REMARK   98  A    between atoms: _251  and  _253
REMARK   99  A    between atoms: _253  and  _254
REMARK  100  A    between atoms: _253  and  _256
REMARK  101  A    between atoms: _256  and  _257
REMARK  102  A    between atoms: _257  and  _258
REMARK  103  A    between atoms: _263  and  _265
REMARK  104  A    between atoms: _265  and  _266
REMARK  105  A    between atoms: _265  and  _268
REMARK  106  A    between atoms: _268  and  _269
REMARK  107  A    between atoms: _272  and  _274
REMARK  108  A    between atoms: _274  and  _275
REMARK  109  A    between atoms: _274  and  _277
REMARK  110  A    between atoms: _277  and  _278
REMARK  111  A    between atoms: _280  and  _282
REMARK  112  A    between atoms: _282  and  _283
REMARK  113  A    between atoms: _282  and  _285
REMARK  114  A    between atoms: _285  and  _286
REMARK  115  A    between atoms: _286  and  _287
REMARK  116  A    between atoms: _287  and  _288
REMARK  117  A    between atoms: _288  and  _289
REMARK  118  A    between atoms: _293  and  _295
REMARK  119  A    between atoms: _295  and  _296
REMARK  120  A    between atoms: _295  and  _298
REMARK  121  A    between atoms: _298  and  _299
REMARK  122  A    between atoms: _302  and  _304
REMARK  123  A    between atoms: _304  and  _305
REMARK  124  A    between atoms: _304  and  _307
REMARK  125  A    between atoms: _307  and  _308
REMARK  126  A    between atoms: _313  and  _315
REMARK  127  A    between atoms: _315  and  _316
REMARK  128  A    between atoms: _315  and  _318
REMARK  129  A    between atoms: _318  and  _319
REMARK  130  A    between atoms: _319  and  _320
REMARK  131  A    between atoms: _325  and  _327
REMARK  132  A    between atoms: _327  and  _328
REMARK  133  A    between atoms: _327  and  _330
REMARK  134  A    between atoms: _330  and  _331
REMARK  135  A    between atoms: _334  and  _336
REMARK  136  A    between atoms: _336  and  _337
REMARK  137  A    between atoms: _336  and  _339
REMARK  138  A    between atoms: _339  and  _340
REMARK  139  A    between atoms: _345  and  _346
REMARK  140  A    between atoms: _348  and  _350
REMARK  141  A    between atoms: _350  and  _351
REMARK  142  A    between atoms: _350  and  _353
REMARK  143  A    between atoms: _353  and  _354
REMARK  144  A    between atoms: _354  and  _355
REMARK  145  A    between atoms: _355  and  _356
REMARK  146  A    between atoms: _365  and  _367
REMARK  147  A    between atoms: _367  and  _368
REMARK  148  A    between atoms: _367  and  _370
REMARK  149  A    between atoms: _370  and  _371
REMARK  150  A    between atoms: _371  and  _372
REMARK  151  A    between atoms: _375  and  _377
REMARK  152  A    between atoms: _377  and  _378
REMARK  153  A    between atoms: _377  and  _380
REMARK  154  A    between atoms: _380  and  _381
REMARK  155  A    between atoms: _383  and  _385
REMARK  156  A    between atoms: _385  and  _386
REMARK  157  A    between atoms: _385  and  _388
REMARK  158  A    between atoms: _388  and  _389
REMARK  159  A    between atoms: _392  and  _394
REMARK  160  A    between atoms: _394  and  _395
REMARK  161  A    between atoms: _394  and  _397
REMARK  162  A    between atoms: _397  and  _398
REMARK  163  A    between atoms: _398  and  _399
REMARK  164  A    between atoms: _399  and  _400
REMARK  165  A    between atoms: _409  and  _411
REMARK  166  A    between atoms: _411  and  _412
REMARK  167  A    between atoms: _411  and  _414
REMARK  168  A    between atoms: _414  and  _415
REMARK  169  A    between atoms: _420  and  _422
REMARK  170  A    between atoms: _422  and  _423
REMARK  171  A    between atoms: _422  and  _425
REMARK  172  A    between atoms: _425  and  _426
REMARK  173  A    between atoms: _429  and  _431
REMARK  174  A    between atoms: _431  and  _432
REMARK  175  A    between atoms: _431  and  _434
REMARK  176  A    between atoms: _434  and  _435
REMARK  177  A    between atoms: _440  and  _441
REMARK  178  A    between atoms: _443  and  _445
REMARK  179  A    between atoms: _445  and  _446
REMARK  180  A    between atoms: _445  and  _448
REMARK  181  A    between atoms: _448  and  _449
REMARK  182  A    between atoms: _452  and  _454
REMARK  183  A    between atoms: _454  and  _455
REMARK  184  A    between atoms: _454  and  _457
REMARK  185  A    between atoms: _457  and  _458
REMARK  186  A    between atoms: _458  and  _459
REMARK  187  A    between atoms: _464  and  _466
REMARK  188  A    between atoms: _466  and  _467
REMARK  189  A    between atoms: _466  and  _469
REMARK  190  A    between atoms: _469  and  _470
REMARK  191  A    between atoms: _470  and  _471
REMARK  192  A    between atoms: _471  and  _472
REMARK  193  A    between atoms: _481  and  _483
REMARK  194  A    between atoms: _483  and  _484
REMARK  195  A    between atoms: _483  and  _486
REMARK  196  A    between atoms: _486  and  _487
REMARK  197  A    between atoms: _487  and  _488
REMARK  198  A    between atoms: _490  and  _492
REMARK  199  A    between atoms: _492  and  _493
REMARK  200  A    between atoms: _492  and  _495
REMARK  201  A    between atoms: _495  and  _496
REMARK  202  A    between atoms: _501  and  _502
REMARK  203  A    between atoms: _504  and  _506
REMARK  204  A    between atoms: _506  and  _507
REMARK  205  A    between atoms: _509  and  _511
REMARK  206  A    between atoms: _511  and  _512
REMARK  207  A    between atoms: _511  and  _514
REMARK  208  A    between atoms: _514  and  _515
REMARK  209  A    between atoms: _515  and  _869
REMARK  210  A    between atoms: _516  and  _518
REMARK  211  A    between atoms: _518  and  _519
REMARK  212  A    between atoms: _518  and  _521
REMARK  213  A    between atoms: _521  and  _522
REMARK  214  A    between atoms: _525  and  _527
REMARK  215  A    between atoms: _527  and  _528
REMARK  216  A    between atoms: _527  and  _530
REMARK  217  A    between atoms: _530  and  _531
REMARK  218  A    between atoms: _531  and  _532
REMARK  219  A    between atoms: _537  and  _539
REMARK  220  A    between atoms: _539  and  _540
REMARK  221  A    between atoms: _539  and  _542
REMARK  222  A    between atoms: _542  and  _543
REMARK  223  A    between atoms: _545  and  _547
REMARK  224  A    between atoms: _547  and  _548
REMARK  225  A    between atoms: _551  and  _553
REMARK  226  A    between atoms: _553  and  _554
REMARK  227  A    between atoms: _553  and  _556
REMARK  228  A    between atoms: _556  and  _557
REMARK  229  A    between atoms: _562  and  _563
REMARK  230  A    between atoms: _565  and  _567
REMARK  231  A    between atoms: _567  and  _568
REMARK  232  A    between atoms: _567  and  _570
REMARK  233  A    between atoms: _570  and  _571
REMARK  234  A    between atoms: _576  and  _577
REMARK  235  A    between atoms: _579  and  _581
REMARK  236  A    between atoms: _581  and  _582
REMARK  237  A    between atoms: _581  and  _584
REMARK  238  A    between atoms: _584  and  _585
REMARK  239  A    between atoms: _588  and  _590
REMARK  240  A    between atoms: _590  and  _591
REMARK  241  A    between atoms: _594  and  _596
REMARK  242  A    between atoms: _596  and  _597
REMARK  243  A    between atoms: _596  and  _599
REMARK  244  A    between atoms: _599  and  _600
REMARK  245  A    between atoms: _610  and  _612
REMARK  246  A    between atoms: _612  and  _613
REMARK  247  A    between atoms: _616  and  _618
REMARK  248  A    between atoms: _618  and  _619
REMARK  249  A    between atoms: _622  and  _624
REMARK  250  A    between atoms: _624  and  _625
REMARK  251  A    between atoms: _624  and  _627
REMARK  252  A    between atoms: _627  and  _628
REMARK  253  A    between atoms: _628  and  _629
REMARK  254  A    between atoms: _634  and  _636
REMARK  255  A    between atoms: _636  and  _637
REMARK  256  A    between atoms: _636  and  _639
REMARK  257  A    between atoms: _639  and  _640
REMARK  258  A    between atoms: _643  and  _645
REMARK  259  A    between atoms: _645  and  _646
REMARK  260  A    between atoms: _645  and  _648
REMARK  261  A    between atoms: _648  and  _649
REMARK  262  A    between atoms: _652  and  _654
REMARK  263  A    between atoms: _654  and  _655
REMARK  264  A    between atoms: _654  and  _657
REMARK  265  A    between atoms: _657  and  _658
REMARK  266  A    between atoms: _658  and  _659
REMARK  267  A    between atoms: _664  and  _666
REMARK  268  A    between atoms: _666  and  _667
REMARK  269  A    between atoms: _666  and  _669
REMARK  270  A    between atoms: _669  and  _670
REMARK  271  A    between atoms: _670  and  _671
REMARK  272  A    between atoms: _671  and  _672
REMARK  273  A    between atoms: _681  and  _683
REMARK  274  A    between atoms: _683  and  _684
REMARK  275  A    between atoms: _683  and  _686
REMARK  276  A    between atoms: _686  and  _687
REMARK  277  A    between atoms: _687  and  _688
REMARK  278  A    between atoms: _688  and  _689
REMARK  279  A    between atoms: _689  and  _690
REMARK  280  A    between atoms: _694  and  _696
REMARK  281  A    between atoms: _696  and  _697
REMARK  282  A    between atoms: _696  and  _699
REMARK  283  A    between atoms: _699  and  _700
REMARK  284  A    between atoms: _710  and  _712
REMARK  285  A    between atoms: _712  and  _713
REMARK  286  A    between atoms: _712  and  _715
REMARK  287  A    between atoms: _715  and  _716
REMARK  288  A    between atoms: _716  and  _717
REMARK  289  A    between atoms: _720  and  _722
REMARK  290  A    between atoms: _722  and  _723
REMARK  291  A    between atoms: _726  and  _728
REMARK  292  A    between atoms: _728  and  _729
REMARK  293  A    between atoms: _732  and  _734
REMARK  294  A    between atoms: _734  and  _735
REMARK  295  A    between atoms: _734  and  _737
REMARK  296  A    between atoms: _737  and  _738
REMARK  297  A    between atoms: _738  and  _739
REMARK  298  A    between atoms: _739  and  _740
REMARK  299  A    between atoms: _749  and  _751
REMARK  300  A    between atoms: _751  and  _752
REMARK  301  A    between atoms: _751  and  _754
REMARK  302  A    between atoms: _754  and  _755
REMARK  303  A    between atoms: _755  and  _756
REMARK  304  A    between atoms: _759  and  _761
REMARK  305  A    between atoms: _761  and  _762
REMARK  306  A    between atoms: _765  and  _767
REMARK  307  A    between atoms: _767  and  _768
REMARK  308  A    between atoms: _767  and  _770
REMARK  309  A    between atoms: _770  and  _771
REMARK  310  A    between atoms: _771  and  _772
REMARK  311  A    between atoms: _775  and  _777
REMARK  312  A    between atoms: _777  and  _778
REMARK  313  A    between atoms: _777  and  _780
REMARK  314  A    between atoms: _780  and  _781
REMARK  315  A    between atoms: _781  and  _782
REMARK  316  A    between atoms: _787  and  _789
REMARK  317  A    between atoms: _789  and  _790
REMARK  318  A    between atoms: _789  and  _792
REMARK  319  A    between atoms: _792  and  _793
REMARK  320  A    between atoms: _803  and  _805
REMARK  321  A    between atoms: _805  and  _806
REMARK  322  A    between atoms: _805  and  _808
REMARK  323  A    between atoms: _808  and  _809
REMARK  324  A    between atoms: _809  and  _810
REMARK  325  A    between atoms: _810  and  _811
REMARK  326  A    between atoms: _820  and  _822
REMARK  327  A    between atoms: _822  and  _823
REMARK  328  A    between atoms: _826  and  _828
REMARK  329  A    between atoms: _828  and  _829
REMARK  330  A    between atoms: _828  and  _831
REMARK  331  A    between atoms: _831  and  _832
REMARK  332  A    between atoms: _837  and  _838
REMARK  333  A    between atoms: _840  and  _842
REMARK  334  A    between atoms: _842  and  _843
REMARK  335  A    between atoms: _842  and  _845
REMARK  336  A    between atoms: _845  and  _846
REMARK  337  A    between atoms: _849  and  _851
REMARK  338  A    between atoms: _851  and  _852
REMARK  339  A    between atoms: _854  and  _856
REMARK  340  A    between atoms: _856  and  _857
REMARK  341  A    between atoms: _856  and  _859
REMARK  342  A    between atoms: _859  and  _860
REMARK  343  A    between atoms: _863  and  _865
REMARK  344  A    between atoms: _865  and  _866
REMARK  345  A    between atoms: _865  and  _868
REMARK  346  A    between atoms: _868  and  _869
REMARK  347  A    between atoms: _870  and  _872
REMARK  348  A    between atoms: _872  and  _873
REMARK  349  A    between atoms: _872  and  _875
REMARK  350  A    between atoms: _878  and  _880
REMARK  351  A    between atoms: _880  and  _881
REMARK  352  A    between atoms: _880  and  _883
REMARK  353  A    between atoms: _883  and  _884
REMARK  354  A    between atoms: _884  and  _885
REMARK  355  A    between atoms: _888  and  _890
REMARK  356  A    between atoms: _890  and  _891
REMARK  357  A    between atoms: _890  and  _893
REMARK  358  A    between atoms: _893  and  _894
REMARK  359  A    between atoms: _904  and  _906
REMARK  360  A    between atoms: _906  and  _907
REMARK  361  A    between atoms: _906  and  _909
REMARK  362  A    between atoms: _909  and  _910
REMARK  363  A    between atoms: _913  and  _915
REMARK  364  A    between atoms: _915  and  _916
REMARK  365  A    between atoms: _915  and  _918
REMARK  366  A    between atoms: _918  and  _919
REMARK  367  A    between atoms: _919  and  _920
REMARK  368  A    between atoms: _920  and  _921
REMARK  369  A    between atoms: _930  and  _932
REMARK  370  A    between atoms: _932  and  _933
REMARK  371  A    between atoms: _932  and  _935
REMARK  372  A    between atoms: _935  and  _936
REMARK  373  A    between atoms: _941  and  _942
REMARK  374  A    between atoms: _944  and  _946
REMARK  375  A    between atoms: _946  and  _947
REMARK  376  A    between atoms: _946  and  _949
REMARK  377  A    between atoms: _949  and  _950
REMARK                            x       y       z     vdW  Elec       q    Type
REMARK                         _______ _______ _______ _____ _____    ______ ____
ROOT
ATOM      1  O   HOH     1      36.534  29.773  38.873  0.00  0.00    +0.000 OA
ENDROOT
TORSDOF 0
REMARK  Name = ../refined-set-2016/1xr9/1xr9_pocket.pdb
REMARK  377 active torsions:
REMARK  status: ('A' for Active; 'I' for Inactive)
REMARK    1  A    between atoms: _1  and  _3
REMARK    2  A    between atoms: _3  and  _4
REMARK    3  A    between atoms: _3  and  _6
REMARK    4  A    between atoms: _6  and  _7
REMARK    5  A    between atoms: _7  and  _8
REMARK    6  A    between atoms: _10  and  _12
REMARK    7  A    between atoms: _12  and  _13
REMARK    8  A    between atoms: _12  and  _15
REMARK    9  A    between atoms: _15  and  _16
REMARK   10  A    between atoms: _16  and  _17
REMARK   11  A    between atoms: _17  and  _18
REMARK   12  A    between atoms: _27  and  _29
REMARK   13  A    between atoms: _29  and  _30
REMARK   14  A    between atoms: _29  and  _32
REMARK   15  A    between atoms: _32  and  _33
REMARK   16  A    between atoms: _38  and  _39
REMARK   17  A    between atoms: _41  and  _43
REMARK   18  A    between atoms: _43  and  _44
REMARK   19  A    between atoms: _43  and  _46
REMARK   20  A    between atoms: _46  and  _47
REMARK   21  A    between atoms: _53  and  _55
REMARK   22  A    between atoms: _55  and  _56
REMARK   23  A    between atoms: _55  and  _58
REMARK   24  A    between atoms: _58  and  _59
REMARK   25  A    between atoms: _64  and  _65
REMARK   26  A    between atoms: _67  and  _69
REMARK   27  A    between atoms: _69  and  _70
REMARK   28  A    between atoms: _69  and  _72
REMARK   29  A    between atoms: _72  and  _73
REMARK   30  A    between atoms: _79  and  _81
REMARK   31  A    between atoms: _81  and  _82
REMARK   32  A    between atoms: _85  and  _87
REMARK   33  A    between atoms: _87  and  _88
REMARK   34  A    between atoms: _87  and  _90
REMARK   35  A    between atoms: _93  and  _95
REMARK   36  A    between atoms: _95  and  _96
REMARK   37  A    between atoms: _98  and  _100
REMARK   38  A    between atoms: _100  and  _101
REMARK   39  A    between atoms: _100  and  _103
REMARK   40  A    between atoms: _106  and  _108
REMARK   41  A    between atoms: _108  and  _109
REMARK   42  A    between atoms: _108  and  _111
REMARK   43  A    between atoms: _111  and  _112
REMARK   44  A    between atoms: _118  and  _120
REMARK   45  A    between atoms: _120  and  _121
REMARK   46  A    between atoms: _120  and  _123
REMARK   47  A    between atoms: _126  and  _128
REMARK   48  A    between atoms: _128  and  _129
REMARK   49  A    between atoms: _128  and  _131
REMARK   50  A    between atoms: _131  and  _132
REMARK   51  A    between atoms: _138  and  _140
REMARK   52  A    between atoms: _140  and  _141
REMARK   53  A    between atoms: _140  and  _143
REMARK   54  A    between atoms: _143  and  _144
REMARK   55  A    between atoms: _144  and  _145
REMARK   56  A    between atoms: _147  and  _149
REMARK   57  A    between atoms: _149  and  _150
REMARK   58  A    between atoms: _149  and  _152
REMARK   59  A    between atoms: _152  and  _153
REMARK   60  A    between atoms: _156  and  _158
REMARK   61  A    between atoms: _158  and  _159
REMARK   62  A    between atoms: _158  and  _161
REMARK   63  A    between atoms: _161  and  _162
REMARK   64  A    between atoms: _162  and  _163
REMARK   65  A    between atoms: _166  and  _168
REMARK   66  A    between atoms: _168  and  _169
REMARK   67  A    between atoms: _168  and  _171
REMARK   68  A    between atoms: _171  and  _172
REMARK   69  A    between atoms: _172  and  _173
REMARK   70  A    between atoms: _176  and  _178
REMARK   71  A    between atoms: _178  and  _179
REMARK   72  A    between atoms: _178  and  _181
REMARK   73  A    between atoms: _181  and  _182
REMARK   74  A    between atoms: _187  and  _188
REMARK   75  A    between atoms: _190  and  _192
REMARK   76  A    between atoms: _192  and  _193
REMARK   77  A    between atoms: _192  and  _195
REMARK   78  A    between atoms: _195  and  _196
REMARK   79  A    between atoms: _206  and  _208
REMARK   80  A    between atoms: _208  and  _209
REMARK   81  A    between atoms: _208  and  _211
REMARK   82  A    between atoms: _211  and  _212
REMARK   83  A    between atoms: _215  and  _217
REMARK   84  A    between atoms: _217  and  _218
REMARK   85  A    between atoms: _217  and  _220
REMARK   86  A    between atoms: _220  and  _221
REMARK   87  A    between atoms: _221  and  _222
REMARK   88  A    between atoms: _222  and  _223
REMARK   89  A    between atoms: _232  and  _234
REMARK   90  A    between atoms: _234  and  _235
REMARK   91  A    between atoms: _234  and  _237
REMARK   92  A    between atoms: _237  and  _238
REMARK   93  A    between atoms: _238  and  _239
REMARK   94  A    between atoms: _242  and  _244
REMARK   95  A    between atoms: _244  and  _245
REMARK   96  A    between atoms: _244  and  _247
REMARK   97  A    between atoms: _247  and  _248
REMARK   98  A    between atoms: _251  and  _253
REMARK   99  A    between atoms: _253  and  _254
REMARK  100  A    between atoms: _253  and  _256
REMARK  101  A    between atoms: _256  and  _257
REMARK  102  A    between atoms: _257  and  _258
REMARK  103  A    between atoms: _263  and  _265
REMARK  104  A    between atoms: _265  and  _266
REMARK  105  A    between atoms: _265  and  _268
REMARK  106  A    between atoms: _268  and  _269
REMARK  107  A    between atoms: _272  and  _274
REMARK  108  A    between atoms: _274  and  _275
REMARK  109  A    between atoms: _274  and  _277
REMARK  110  A    between atoms: _277  and  _278
REMARK  111  A    between atoms: _280  and  _282
REMARK  112  A    between atoms: _282  and  _283
REMARK  113  A    between atoms: _282  and  _285
REMARK  114  A    between atoms: _285  and  _286
REMARK  115  A    between atoms: _286  and  _287
REMARK  116  A    between atoms: _287  and  _288
REMARK  117  A    between atoms: _288  and  _289
REMARK  118  A    between atoms: _293  and  _295
REMARK  119  A    between atoms: _295  and  _296
REMARK  120  A    between atoms: _295  and  _298
REMARK  121  A    between atoms: _298  and  _299
REMARK  122  A    between atoms: _302  and  _304
REMARK  123  A    between atoms: _304  and  _305
REMARK  124  A    between atoms: _304  and  _307
REMARK  125  A    between atoms: _307  and  _308
REMARK  126  A    between atoms: _313  and  _315
REMARK  127  A    between atoms: _315  and  _316
REMARK  128  A    between atoms: _315  and  _318
REMARK  129  A    between atoms: _318  and  _319
REMARK  130  A    between atoms: _319  and  _320
REMARK  131  A    between atoms: _325  and  _327
REMARK  132  A    between atoms: _327  and  _328
REMARK  133  A    between atoms: _327  and  _330
REMARK  134  A    between atoms: _330  and  _331
REMARK  135  A    between atoms: _334  and  _336
REMARK  136  A    between atoms: _336  and  _337
REMARK  137  A    between atoms: _336  and  _339
REMARK  138  A    between atoms: _339  and  _340
REMARK  139  A    between atoms: _345  and  _346
REMARK  140  A    between atoms: _348  and  _350
REMARK  141  A    between atoms: _350  and  _351
REMARK  142  A    between atoms: _350  and  _353
REMARK  143  A    between atoms: _353  and  _354
REMARK  144  A    between atoms: _354  and  _355
REMARK  145  A    between atoms: _355  and  _356
REMARK  146  A    between atoms: _365  and  _367
REMARK  147  A    between atoms: _367  and  _368
REMARK  148  A    between atoms: _367  and  _370
REMARK  149  A    between atoms: _370  and  _371
REMARK  150  A    between atoms: _371  and  _372
REMARK  151  A    between atoms: _375  and  _377
REMARK  152  A    between atoms: _377  and  _378
REMARK  153  A    between atoms: _377  and  _380
REMARK  154  A    between atoms: _380  and  _381
REMARK  155  A    between atoms: _383  and  _385
REMARK  156  A    between atoms: _385  and  _386
REMARK  157  A    between atoms: _385  and  _388
REMARK  158  A    between atoms: _388  and  _389
REMARK  159  A    between atoms: _392  and  _394
REMARK  160  A    between atoms: _394  and  _395
REMARK  161  A    between atoms: _394  and  _397
REMARK  162  A    between atoms: _397  and  _398
REMARK  163  A    between atoms: _398  and  _399
REMARK  164  A    between atoms: _399  and  _400
REMARK  165  A    between atoms: _409  and  _411
REMARK  166  A    between atoms: _411  and  _412
REMARK  167  A    between atoms: _411  and  _414
REMARK  168  A    between atoms: _414  and  _415
REMARK  169  A    between atoms: _420  and  _422
REMARK  170  A    between atoms: _422  and  _423
REMARK  171  A    between atoms: _422  and  _425
REMARK  172  A    between atoms: _425  and  _426
REMARK  173  A    between atoms: _429  and  _431
REMARK  174  A    between atoms: _431  and  _432
REMARK  175  A    between atoms: _431  and  _434
REMARK  176  A    between atoms: _434  and  _435
REMARK  177  A    between atoms: _440  and  _441
REMARK  178  A    between atoms: _443  and  _445
REMARK  179  A    between atoms: _445  and  _446
REMARK  180  A    between atoms: _445  and  _448
REMARK  181  A    between atoms: _448  and  _449
REMARK  182  A    between atoms: _452  and  _454
REMARK  183  A    between atoms: _454  and  _455
REMARK  184  A    between atoms: _454  and  _457
REMARK  185  A    between atoms: _457  and  _458
REMARK  186  A    between atoms: _458  and  _459
REMARK  187  A    between atoms: _464  and  _466
REMARK  188  A    between atoms: _466  and  _467
REMARK  189  A    between atoms: _466  and  _469
REMARK  190  A    between atoms: _469  and  _470
REMARK  191  A    between atoms: _470  and  _471
REMARK  192  A    between atoms: _471  and  _472
REMARK  193  A    between atoms: _481  and  _483
REMARK  194  A    between atoms: _483  and  _484
REMARK  195  A    between atoms: _483  and  _486
REMARK  196  A    between atoms: _486  and  _487
REMARK  197  A    between atoms: _487  and  _488
REMARK  198  A    between atoms: _490  and  _492
REMARK  199  A    between atoms: _492  and  _493
REMARK  200  A    between atoms: _492  and  _495
REMARK  201  A    between atoms: _495  and  _496
REMARK  202  A    between atoms: _501  and  _502
REMARK  203  A    between atoms: _504  and  _506
REMARK  204  A    between atoms: _506  and  _507
REMARK  205  A    between atoms: _509  and  _511
REMARK  206  A    between atoms: _511  and  _512
REMARK  207  A    between atoms: _511  and  _514
REMARK  208  A    between atoms: _514  and  _515
REMARK  209  A    between atoms: _515  and  _869
REMARK  210  A    between atoms: _516  and  _518
REMARK  211  A    between atoms: _518  and  _519
REMARK  212  A    between atoms: _518  and  _521
REMARK  213  A    between atoms: _521  and  _522
REMARK  214  A    between atoms: _525  and  _527
REMARK  215  A    between atoms: _527  and  _528
REMARK  216  A    between atoms: _527  and  _530
REMARK  217  A    between atoms: _530  and  _531
REMARK  218  A    between atoms: _531  and  _532
REMARK  219  A    between atoms: _537  and  _539
REMARK  220  A    between atoms: _539  and  _540
REMARK  221  A    between atoms: _539  and  _542
REMARK  222  A    between atoms: _542  and  _543
REMARK  223  A    between atoms: _545  and  _547
REMARK  224  A    between atoms: _547  and  _548
REMARK  225  A    between atoms: _551  and  _553
REMARK  226  A    between atoms: _553  and  _554
REMARK  227  A    between atoms: _553  and  _556
REMARK  228  A    between atoms: _556  and  _557
REMARK  229  A    between atoms: _562  and  _563
REMARK  230  A    between atoms: _565  and  _567
REMARK  231  A    between atoms: _567  and  _568
REMARK  232  A    between atoms: _567  and  _570
REMARK  233  A    between atoms: _570  and  _571
REMARK  234  A    between atoms: _576  and  _577
REMARK  235  A    between atoms: _579  and  _581
REMARK  236  A    between atoms: _581  and  _582
REMARK  237  A    between atoms: _581  and  _584
REMARK  238  A    between atoms: _584  and  _585
REMARK  239  A    between atoms: _588  and  _590
REMARK  240  A    between atoms: _590  and  _591
REMARK  241  A    between atoms: _594  and  _596
REMARK  242  A    between atoms: _596  and  _597
REMARK  243  A    between atoms: _596  and  _599
REMARK  244  A    between atoms: _599  and  _600
REMARK  245  A    between atoms: _610  and  _612
REMARK  246  A    between atoms: _612  and  _613
REMARK  247  A    between atoms: _616  and  _618
REMARK  248  A    between atoms: _618  and  _619
REMARK  249  A    between atoms: _622  and  _624
REMARK  250  A    between atoms: _624  and  _625
REMARK  251  A    between atoms: _624  and  _627
REMARK  252  A    between atoms: _627  and  _628
REMARK  253  A    between atoms: _628  and  _629
REMARK  254  A    between atoms: _634  and  _636
REMARK  255  A    between atoms: _636  and  _637
REMARK  256  A    between atoms: _636  and  _639
REMARK  257  A    between atoms: _639  and  _640
REMARK  258  A    between atoms: _643  and  _645
REMARK  259  A    between atoms: _645  and  _646
REMARK  260  A    between atoms: _645  and  _648
REMARK  261  A    between atoms: _648  and  _649
REMARK  262  A    between atoms: _652  and  _654
REMARK  263  A    between atoms: _654  and  _655
REMARK  264  A    between atoms: _654  and  _657
REMARK  265  A    between atoms: _657  and  _658
REMARK  266  A    between atoms: _658  and  _659
REMARK  267  A    between atoms: _664  and  _666
REMARK  268  A    between atoms: _666  and  _667
REMARK  269  A    between atoms: _666  and  _669
REMARK  270  A    between atoms: _669  and  _670
REMARK  271  A    between atoms: _670  and  _671
REMARK  272  A    between atoms: _671  and  _672
REMARK  273  A    between atoms: _681  and  _683
REMARK  274  A    between atoms: _683  and  _684
REMARK  275  A    between atoms: _683  and  _686
REMARK  276  A    between atoms: _686  and  _687
REMARK  277  A    between atoms: _687  and  _688
REMARK  278  A    between atoms: _688  and  _689
REMARK  279  A    between atoms: _689  and  _690
REMARK  280  A    between atoms: _694  and  _696
REMARK  281  A    between atoms: _696  and  _697
REMARK  282  A    between atoms: _696  and  _699
REMARK  283  A    between atoms: _699  and  _700
REMARK  284  A    between atoms: _710  and  _712
REMARK  285  A    between atoms: _712  and  _713
REMARK  286  A    between atoms: _712  and  _715
REMARK  287  A    between atoms: _715  and  _716
REMARK  288  A    between atoms: _716  and  _717
REMARK  289  A    between atoms: _720  and  _722
REMARK  290  A    between atoms: _722  and  _723
REMARK  291  A    between atoms: _726  and  _728
REMARK  292  A    between atoms: _728  and  _729
REMARK  293  A    between atoms: _732  and  _734
REMARK  294  A    between atoms: _734  and  _735
REMARK  295  A    between atoms: _734  and  _737
REMARK  296  A    between atoms: _737  and  _738
REMARK  297  A    between atoms: _738  and  _739
REMARK  298  A    between atoms: _739  and  _740
REMARK  299  A    between atoms: _749  and  _751
REMARK  300  A    between atoms: _751  and  _752
REMARK  301  A    between atoms: _751  and  _754
REMARK  302  A    between atoms: _754  and  _755
REMARK  303  A    between atoms: _755  and  _756
REMARK  304  A    between atoms: _759  and  _761
REMARK  305  A    between atoms: _761  and  _762
REMARK  306  A    between atoms: _765  and  _767
REMARK  307  A    between atoms: _767  and  _768
REMARK  308  A    between atoms: _767  and  _770
REMARK  309  A    between atoms: _770  and  _771
REMARK  310  A    between atoms: _771  and  _772
REMARK  311  A    between atoms: _775  and  _777
REMARK  312  A    between atoms: _777  and  _778
REMARK  313  A    between atoms: _777  and  _780
REMARK  314  A    between atoms: _780  and  _781
REMARK  315  A    between atoms: _781  and  _782
REMARK  316  A    between atoms: _787  and  _789
REMARK  317  A    between atoms: _789  and  _790
REMARK  318  A    between atoms: _789  and  _792
REMARK  319  A    between atoms: _792  and  _793
REMARK  320  A    between atoms: _803  and  _805
REMARK  321  A    between atoms: _805  and  _806
REMARK  322  A    between atoms: _805  and  _808
REMARK  323  A    between atoms: _808  and  _809
REMARK  324  A    between atoms: _809  and  _810
REMARK  325  A    between atoms: _810  and  _811
REMARK  326  A    between atoms: _820  and  _822
REMARK  327  A    between atoms: _822  and  _823
REMARK  328  A    between atoms: _826  and  _828
REMARK  329  A    between atoms: _828  and  _829
REMARK  330  A    between atoms: _828  and  _831
REMARK  331  A    between atoms: _831  and  _832
REMARK  332  A    between atoms: _837  and  _838
REMARK  333  A    between atoms: _840  and  _842
REMARK  334  A    between atoms: _842  and  _843
REMARK  335  A    between atoms: _842  and  _845
REMARK  336  A    between atoms: _845  and  _846
REMARK  337  A    between atoms: _849  and  _851
REMARK  338  A    between atoms: _851  and  _852
REMARK  339  A    between atoms: _854  and  _856
REMARK  340  A    between atoms: _856  and  _857
REMARK  341  A    between atoms: _856  and  _859
REMARK  342  A    between atoms: _859  and  _860
REMARK  343  A    between atoms: _863  and  _865
REMARK  344  A    between atoms: _865  and  _866
REMARK  345  A    between atoms: _865  and  _868
REMARK  346  A    between atoms: _868  and  _869
REMARK  347  A    between atoms: _870  and  _872
REMARK  348  A    between atoms: _872  and  _873
REMARK  349  A    between atoms: _872  and  _875
REMARK  350  A    between atoms: _878  and  _880
REMARK  351  A    between atoms: _880  and  _881
REMARK  352  A    between atoms: _880  and  _883
REMARK  353  A    between atoms: _883  and  _884
REMARK  354  A    between atoms: _884  and  _885
REMARK  355  A    between atoms: _888  and  _890
REMARK  356  A    between atoms: _890  and  _891
REMARK  357  A    between atoms: _890  and  _893
REMARK  358  A    between atoms: _893  and  _894
REMARK  359  A    between atoms: _904  and  _906
REMARK  360  A    between atoms: _906  and  _907
REMARK  361  A    between atoms: _906  and  _909
REMARK  362  A    between atoms: _909  and  _910
REMARK  363  A    between atoms: _913  and  _915
REMARK  364  A    between atoms: _915  and  _916
REMARK  365  A    between atoms: _915  and  _918
REMARK  366  A    between atoms: _918  and  _919
REMARK  367  A    between atoms: _919  and  _920
REMARK  368  A    between atoms: _920  and  _921
REMARK  369  A    between atoms: _930  and  _932
REMARK  370  A    between atoms: _932  and  _933
REMARK  371  A    between atoms: _932  and  _935
REMARK  372  A    between atoms: _935  and  _936
REMARK  373  A    between atoms: _941  and  _942
REMARK  374  A    between atoms: _944  and  _946
REMARK  375  A    between atoms: _946  and  _947
REMARK  376  A    between atoms: _946  and  _949
REMARK  377  A    between atoms: _949  and  _950
REMARK                            x       y       z     vdW  Elec       q    Type
REMARK                         _______ _______ _______ _____ _____    ______ ____
ROOT
ATOM      1  O   HOH     1      28.543  30.073  41.231  0.00  0.00    +0.000 OA
ENDROOT
TORSDOF 0
REMARK  Name = ../refined-set-2016/1xr9/1xr9_pocket.pdb
REMARK  377 active torsions:
REMARK  status: ('A' for Active; 'I' for Inactive)
REMARK    1  A    between atoms: _1  and  _3
REMARK    2  A    between atoms: _3  and  _4
REMARK    3  A    between atoms: _3  and  _6
REMARK    4  A    between atoms: _6  and  _7
REMARK    5  A    between atoms: _7  and  _8
REMARK    6  A    between atoms: _10  and  _12
REMARK    7  A    between atoms: _12  and  _13
REMARK    8  A    between atoms: _12  and  _15
REMARK    9  A    between atoms: _15  and  _16
REMARK   10  A    between atoms: _16  and  _17
REMARK   11  A    between atoms: _17  and  _18
REMARK   12  A    between atoms: _27  and  _29
REMARK   13  A    between atoms: _29  and  _30
REMARK   14  A    between atoms: _29  and  _32
REMARK   15  A    between atoms: _32  and  _33
REMARK   16  A    between atoms: _38  and  _39
REMARK   17  A    between atoms: _41  and  _43
REMARK   18  A    between atoms: _43  and  _44
REMARK   19  A    between atoms: _43  and  _46
REMARK   20  A    between atoms: _46  and  _47
REMARK   21  A    between atoms: _53  and  _55
REMARK   22  A    between atoms: _55  and  _56
REMARK   23  A    between atoms: _55  and  _58
REMARK   24  A    between atoms: _58  and  _59
REMARK   25  A    between atoms: _64  and  _65
REMARK   26  A    between atoms: _67  and  _69
REMARK   27  A    between atoms: _69  and  _70
REMARK   28  A    between atoms: _69  and  _72
REMARK   29  A    between atoms: _72  and  _73
REMARK   30  A    between atoms: _79  and  _81
REMARK   31  A    between atoms: _81  and  _82
REMARK   32  A    between atoms: _85  and  _87
REMARK   33  A    between atoms: _87  and  _88
REMARK   34  A    between atoms: _87  and  _90
REMARK   35  A    between atoms: _93  and  _95
REMARK   36  A    between atoms: _95  and  _96
REMARK   37  A    between atoms: _98  and  _100
REMARK   38  A    between atoms: _100  and  _101
REMARK   39  A    between atoms: _100  and  _103
REMARK   40  A    between atoms: _106  and  _108
REMARK   41  A    between atoms: _108  and  _109
REMARK   42  A    between atoms: _108  and  _111
REMARK   43  A    between atoms: _111  and  _112
REMARK   44  A    between atoms: _118  and  _120
REMARK   45  A    between atoms: _120  and  _121
REMARK   46  A    between atoms: _120  and  _123
REMARK   47  A    between atoms: _126  and  _128
REMARK   48  A    between atoms: _128  and  _129
REMARK   49  A    between atoms: _128  and  _131
REMARK   50  A    between atoms: _131  and  _132
REMARK   51  A    between atoms: _138  and  _140
REMARK   52  A    between atoms: _140  and  _141
REMARK   53  A    between atoms: _140  and  _143
REMARK   54  A    between atoms: _143  and  _144
REMARK   55  A    between atoms: _144  and  _145
REMARK   56  A    between atoms: _147  and  _149
REMARK   57  A    between atoms: _149  and  _150
REMARK   58  A    between atoms: _149  and  _152
REMARK   59  A    between atoms: _152  and  _153
REMARK   60  A    between atoms: _156  and  _158
REMARK   61  A    between atoms: _158  and  _159
REMARK   62  A    between atoms: _158  and  _161
REMARK   63  A    between atoms: _161  and  _162
REMARK   64  A    between atoms: _162  and  _163
REMARK   65  A    between atoms: _166  and  _168
REMARK   66  A    between atoms: _168  and  _169
REMARK   67  A    between atoms: _168  and  _171
REMARK   68  A    between atoms: _171  and  _172
REMARK   69  A    between atoms: _172  and  _173
REMARK   70  A    between atoms: _176  and  _178
REMARK   71  A    between atoms: _178  and  _179
REMARK   72  A    between atoms: _178  and  _181
REMARK   73  A    between atoms: _181  and  _182
REMARK   74  A    between atoms: _187  and  _188
REMARK   75  A    between atoms: _190  and  _192
REMARK   76  A    between atoms: _192  and  _193
REMARK   77  A    between atoms: _192  and  _195
REMARK   78  A    between atoms: _195  and  _196
REMARK   79  A    between atoms: _206  and  _208
REMARK   80  A    between atoms: _208  and  _209
REMARK   81  A    between atoms: _208  and  _211
REMARK   82  A    between atoms: _211  and  _212
REMARK   83  A    between atoms: _215  and  _217
REMARK   84  A    between atoms: _217  and  _218
REMARK   85  A    between atoms: _217  and  _220
REMARK   86  A    between atoms: _220  and  _221
REMARK   87  A    between atoms: _221  and  _222
REMARK   88  A    between atoms: _222  and  _223
REMARK   89  A    between atoms: _232  and  _234
REMARK   90  A    between atoms: _234  and  _235
REMARK   91  A    between atoms: _234  and  _237
REMARK   92  A    between atoms: _237  and  _238
REMARK   93  A    between atoms: _238  and  _239
REMARK   94  A    between atoms: _242  and  _244
REMARK   95  A    between atoms: _244  and  _245
REMARK   96  A    between atoms: _244  and  _247
REMARK   97  A    between atoms: _247  and  _248
REMARK   98  A    between atoms: _251  and  _253
REMARK   99  A    between atoms: _253  and  _254
REMARK  100  A    between atoms: _253  and  _256
REMARK  101  A    between atoms: _256  and  _257
REMARK  102  A    between atoms: _257  and  _258
REMARK  103  A    between atoms: _263  and  _265
REMARK  104  A    between atoms: _265  and  _266
REMARK  105  A    between atoms: _265  and  _268
REMARK  106  A    between atoms: _268  and  _269
REMARK  107  A    between atoms: _272  and  _274
REMARK  108  A    between atoms: _274  and  _275
REMARK  109  A    between atoms: _274  and  _277
REMARK  110  A    between atoms: _277  and  _278
REMARK  111  A    between atoms: _280  and  _282
REMARK  112  A    between atoms: _282  and  _283
REMARK  113  A    between atoms: _282  and  _285
REMARK  114  A    between atoms: _285  and  _286
REMARK  115  A    between atoms: _286  and  _287
REMARK  116  A    between atoms: _287  and  _288
REMARK  117  A    between atoms: _288  and  _289
REMARK  118  A    between atoms: _293  and  _295
REMARK  119  A    between atoms: _295  and  _296
REMARK  120  A    between atoms: _295  and  _298
REMARK  121  A    between atoms: _298  and  _299
REMARK  122  A    between atoms: _302  and  _304
REMARK  123  A    between atoms: _304  and  _305
REMARK  124  A    between atoms: _304  and  _307
REMARK  125  A    between atoms: _307  and  _308
REMARK  126  A    between atoms: _313  and  _315
REMARK  127  A    between atoms: _315  and  _316
REMARK  128  A    between atoms: _315  and  _318
REMARK  129  A    between atoms: _318  and  _319
REMARK  130  A    between atoms: _319  and  _320
REMARK  131  A    between atoms: _325  and  _327
REMARK  132  A    between atoms: _327  and  _328
REMARK  133  A    between atoms: _327  and  _330
REMARK  134  A    between atoms: _330  and  _331
REMARK  135  A    between atoms: _334  and  _336
REMARK  136  A    between atoms: _336  and  _337
REMARK  137  A    between atoms: _336  and  _339
REMARK  138  A    between atoms: _339  and  _340
REMARK  139  A    between atoms: _345  and  _346
REMARK  140  A    between atoms: _348  and  _350
REMARK  141  A    between atoms: _350  and  _351
REMARK  142  A    between atoms: _350  and  _353
REMARK  143  A    between atoms: _353  and  _354
REMARK  144  A    between atoms: _354  and  _355
REMARK  145  A    between atoms: _355  and  _356
REMARK  146  A    between atoms: _365  and  _367
REMARK  147  A    between atoms: _367  and  _368
REMARK  148  A    between atoms: _367  and  _370
REMARK  149  A    between atoms: _370  and  _371
REMARK  150  A    between atoms: _371  and  _372
REMARK  151  A    between atoms: _375  and  _377
REMARK  152  A    between atoms: _377  and  _378
REMARK  153  A    between atoms: _377  and  _380
REMARK  154  A    between atoms: _380  and  _381
REMARK  155  A    between atoms: _383  and  _385
REMARK  156  A    between atoms: _385  and  _386
REMARK  157  A    between atoms: _385  and  _388
REMARK  158  A    between atoms: _388  and  _389
REMARK  159  A    between atoms: _392  and  _394
REMARK  160  A    between atoms: _394  and  _395
REMARK  161  A    between atoms: _394  and  _397
REMARK  162  A    between atoms: _397  and  _398
REMARK  163  A    between atoms: _398  and  _399
REMARK  164  A    between atoms: _399  and  _400
REMARK  165  A    between atoms: _409  and  _411
REMARK  166  A    between atoms: _411  and  _412
REMARK  167  A    between atoms: _411  and  _414
REMARK  168  A    between atoms: _414  and  _415
REMARK  169  A    between atoms: _420  and  _422
REMARK  170  A    between atoms: _422  and  _423
REMARK  171  A    between atoms: _422  and  _425
REMARK  172  A    between atoms: _425  and  _426
REMARK  173  A    between atoms: _429  and  _431
REMARK  174  A    between atoms: _431  and  _432
REMARK  175  A    between atoms: _431  and  _434
REMARK  176  A    between atoms: _434  and  _435
REMARK  177  A    between atoms: _440  and  _441
REMARK  178  A    between atoms: _443  and  _445
REMARK  179  A    between atoms: _445  and  _446
REMARK  180  A    between atoms: _445  and  _448
REMARK  181  A    between atoms: _448  and  _449
REMARK  182  A    between atoms: _452  and  _454
REMARK  183  A    between atoms: _454  and  _455
REMARK  184  A    between atoms: _454  and  _457
REMARK  185  A    between atoms: _457  and  _458
REMARK  186  A    between atoms: _458  and  _459
REMARK  187  A    between atoms: _464  and  _466
REMARK  188  A    between atoms: _466  and  _467
REMARK  189  A    between atoms: _466  and  _469
REMARK  190  A    between atoms: _469  and  _470
REMARK  191  A    between atoms: _470  and  _471
REMARK  192  A    between atoms: _471  and  _472
REMARK  193  A    between atoms: _481  and  _483
REMARK  194  A    between atoms: _483  and  _484
REMARK  195  A    between atoms: _483  and  _486
REMARK  196  A    between atoms: _486  and  _487
REMARK  197  A    between atoms: _487  and  _488
REMARK  198  A    between atoms: _490  and  _492
REMARK  199  A    between atoms: _492  and  _493
REMARK  200  A    between atoms: _492  and  _495
REMARK  201  A    between atoms: _495  and  _496
REMARK  202  A    between atoms: _501  and  _502
REMARK  203  A    between atoms: _504  and  _506
REMARK  204  A    between atoms: _506  and  _507
REMARK  205  A    between atoms: _509  and  _511
REMARK  206  A    between atoms: _511  and  _512
REMARK  207  A    between atoms: _511  and  _514
REMARK  208  A    between atoms: _514  and  _515
REMARK  209  A    between atoms: _515  and  _869
REMARK  210  A    between atoms: _516  and  _518
REMARK  211  A    between atoms: _518  and  _519
REMARK  212  A    between atoms: _518  and  _521
REMARK  213  A    between atoms: _521  and  _522
REMARK  214  A    between atoms: _525  and  _527
REMARK  215  A    between atoms: _527  and  _528
REMARK  216  A    between atoms: _527  and  _530
REMARK  217  A    between atoms: _530  and  _531
REMARK  218  A    between atoms: _531  and  _532
REMARK  219  A    between atoms: _537  and  _539
REMARK  220  A    between atoms: _539  and  _540
REMARK  221  A    between atoms: _539  and  _542
REMARK  222  A    between atoms: _542  and  _543
REMARK  223  A    between atoms: _545  and  _547
REMARK  224  A    between atoms: _547  and  _548
REMARK  225  A    between atoms: _551  and  _553
REMARK  226  A    between atoms: _553  and  _554
REMARK  227  A    between atoms: _553  and  _556
REMARK  228  A    between atoms: _556  and  _557
REMARK  229  A    between atoms: _562  and  _563
REMARK  230  A    between atoms: _565  and  _567
REMARK  231  A    between atoms: _567  and  _568
REMARK  232  A    between atoms: _567  and  _570
REMARK  233  A    between atoms: _570  and  _571
REMARK  234  A    between atoms: _576  and  _577
REMARK  235  A    between atoms: _579  and  _581
REMARK  236  A    between atoms: _581  and  _582
REMARK  237  A    between atoms: _581  and  _584
REMARK  238  A    between atoms: _584  and  _585
REMARK  239  A    between atoms: _588  and  _590
REMARK  240  A    between atoms: _590  and  _591
REMARK  241  A    between atoms: _594  and  _596
REMARK  242  A    between atoms: _596  and  _597
REMARK  243  A    between atoms: _596  and  _599
REMARK  244  A    between atoms: _599  and  _600
REMARK  245  A    between atoms: _610  and  _612
REMARK  246  A    between atoms: _612  and  _613
REMARK  247  A    between atoms: _616  and  _618
REMARK  248  A    between atoms: _618  and  _619
REMARK  249  A    between atoms: _622  and  _624
REMARK  250  A    between atoms: _624  and  _625
REMARK  251  A    between atoms: _624  and  _627
REMARK  252  A    between atoms: _627  and  _628
REMARK  253  A    between atoms: _628  and  _629
REMARK  254  A    between atoms: _634  and  _636
REMARK  255  A    between atoms: _636  and  _637
REMARK  256  A    between atoms: _636  and  _639
REMARK  257  A    between atoms: _639  and  _640
REMARK  258  A    between atoms: _643  and  _645
REMARK  259  A    between atoms: _645  and  _646
REMARK  260  A    between atoms: _645  and  _648
REMARK  261  A    between atoms: _648  and  _649
REMARK  262  A    between atoms: _652  and  _654
REMARK  263  A    between atoms: _654  and  _655
REMARK  264  A    between atoms: _654  and  _657
REMARK  265  A    between atoms: _657  and  _658
REMARK  266  A    between atoms: _658  and  _659
REMARK  267  A    between atoms: _664  and  _666
REMARK  268  A    between atoms: _666  and  _667
REMARK  269  A    between atoms: _666  and  _669
REMARK  270  A    between atoms: _669  and  _670
REMARK  271  A    between atoms: _670  and  _671
REMARK  272  A    between atoms: _671  and  _672
REMARK  273  A    between atoms: _681  and  _683
REMARK  274  A    between atoms: _683  and  _684
REMARK  275  A    between atoms: _683  and  _686
REMARK  276  A    between atoms: _686  and  _687
REMARK  277  A    between atoms: _687  and  _688
REMARK  278  A    between atoms: _688  and  _689
REMARK  279  A    between atoms: _689  and  _690
REMARK  280  A    between atoms: _694  and  _696
REMARK  281  A    between atoms: _696  and  _697
REMARK  282  A    between atoms: _696  and  _699
REMARK  283  A    between atoms: _699  and  _700
REMARK  284  A    between atoms: _710  and  _712
REMARK  285  A    between atoms: _712  and  _713
REMARK  286  A    between atoms: _712  and  _715
REMARK  287  A    between atoms: _715  and  _716
REMARK  288  A    between atoms: _716  and  _717
REMARK  289  A    between atoms: _720  and  _722
REMARK  290  A    between atoms: _722  and  _723
REMARK  291  A    between atoms: _726  and  _728
REMARK  292  A    between atoms: _728  and  _729
REMARK  293  A    between atoms: _732  and  _734
REMARK  294  A    between atoms: _734  and  _735
REMARK  295  A    between atoms: _734  and  _737
REMARK  296  A    between atoms: _737  and  _738
REMARK  297  A    between atoms: _738  and  _739
REMARK  298  A    between atoms: _739  and  _740
REMARK  299  A    between atoms: _749  and  _751
REMARK  300  A    between atoms: _751  and  _752
REMARK  301  A    between atoms: _751  and  _754
REMARK  302  A    between atoms: _754  and  _755
REMARK  303  A    between atoms: _755  and  _756
REMARK  304  A    between atoms: _759  and  _761
REMARK  305  A    between atoms: _761  and  _762
REMARK  306  A    between atoms: _765  and  _767
REMARK  307  A    between atoms: _767  and  _768
REMARK  308  A    between atoms: _767  and  _770
REMARK  309  A    between atoms: _770  and  _771
REMARK  310  A    between atoms: _771  and  _772
REMARK  311  A    between atoms: _775  and  _777
REMARK  312  A    between atoms: _777  and  _778
REMARK  313  A    between atoms: _777  and  _780
REMARK  314  A    between atoms: _780  and  _781
REMARK  315  A    between atoms: _781  and  _782
REMARK  316  A    between atoms: _787  and  _789
REMARK  317  A    between atoms: _789  and  _790
REMARK  318  A    between atoms: _789  and  _792
REMARK  319  A    between atoms: _792  and  _793
REMARK  320  A    between atoms: _803  and  _805
REMARK  321  A    between atoms: _805  and  _806
REMARK  322  A    between atoms: _805  and  _808
REMARK  323  A    between atoms: _808  and  _809
REMARK  324  A    between atoms: _809  and  _810
REMARK  325  A    between atoms: _810  and  _811
REMARK  326  A    between atoms: _820  and  _822
REMARK  327  A    between atoms: _822  and  _823
REMARK  328  A    between atoms: _826  and  _828
REMARK  329  A    between atoms: _828  and  _829
REMARK  330  A    between atoms: _828  and  _831
REMARK  331  A    between atoms: _831  and  _832
REMARK  332  A    between atoms: _837  and  _838
REMARK  333  A    between atoms: _840  and  _842
REMARK  334  A    between atoms: _842  and  _843
REMARK  335  A    between atoms: _842  and  _845
REMARK  336  A    between atoms: _845  and  _846
REMARK  337  A    between atoms: _849  and  _851
REMARK  338  A    between atoms: _851  and  _852
REMARK  339  A    between atoms: _854  and  _856
REMARK  340  A    between atoms: _856  and  _857
REMARK  341  A    between atoms: _856  and  _859
REMARK  342  A    between atoms: _859  and  _860
REMARK  343  A    between atoms: _863  and  _865
REMARK  344  A    between atoms: _865  and  _866
REMARK  345  A    between atoms: _865  and  _868
REMARK  346  A    between atoms: _868  and  _869
REMARK  347  A    between atoms: _870  and  _872
REMARK  348  A    between atoms: _872  and  _873
REMARK  349  A    between atoms: _872  and  _875
REMARK  350  A    between atoms: _878  and  _880
REMARK  351  A    between atoms: _880  and  _881
REMARK  352  A    between atoms: _880  and  _883
REMARK  353  A    between atoms: _883  and  _884
REMARK  354  A    between atoms: _884  and  _885
REMARK  355  A    between atoms: _888  and  _890
REMARK  356  A    between atoms: _890  and  _891
REMARK  357  A    between atoms: _890  and  _893
REMARK  358  A    between atoms: _893  and  _894
REMARK  359  A    between atoms: _904  and  _906
REMARK  360  A    between atoms: _906  and  _907
REMARK  361  A    between atoms: _906  and  _909
REMARK  362  A    between atoms: _909  and  _910
REMARK  363  A    between atoms: _913  and  _915
REMARK  364  A    between atoms: _915  and  _916
REMARK  365  A    between atoms: _915  and  _918
REMARK  366  A    between atoms: _918  and  _919
REMARK  367  A    between atoms: _919  and  _920
REMARK  368  A    between atoms: _920  and  _921
REMARK  369  A    between atoms: _930  and  _932
REMARK  370  A    between atoms: _932  and  _933
REMARK  371  A    between atoms: _932  and  _935
REMARK  372  A    between atoms: _935  and  _936
REMARK  373  A    between atoms: _941  and  _942
REMARK  374  A    between atoms: _944  and  _946
REMARK  375  A    between atoms: _946  and  _947
REMARK  376  A    between atoms: _946  and  _949
REMARK  377  A    between atoms: _949  and  _950
REMARK                            x       y       z     vdW  Elec       q    Type
REMARK                         _______ _______ _______ _____ _____    ______ ____
ROOT
ATOM      1  O   HOH     1      35.005  25.775  39.734  0.00  0.00    +0.000 OA
ENDROOT
TORSDOF 0
REMARK  Name = ../refined-set-2016/1xr9/1xr9_pocket.pdb
REMARK  377 active torsions:
REMARK  status: ('A' for Active; 'I' for Inactive)
REMARK    1  A    between atoms: _1  and  _3
REMARK    2  A    between atoms: _3  and  _4
REMARK    3  A    between atoms: _3  and  _6
REMARK    4  A    between atoms: _6  and  _7
REMARK    5  A    between atoms: _7  and  _8
REMARK    6  A    between atoms: _10  and  _12
REMARK    7  A    between atoms: _12  and  _13
REMARK    8  A    between atoms: _12  and  _15
REMARK    9  A    between atoms: _15  and  _16
REMARK   10  A    between atoms: _16  and  _17
REMARK   11  A    between atoms: _17  and  _18
REMARK   12  A    between atoms: _27  and  _29
REMARK   13  A    between atoms: _29  and  _30
REMARK   14  A    between atoms: _29  and  _32
REMARK   15  A    between atoms: _32  and  _33
REMARK   16  A    between atoms: _38  and  _39
REMARK   17  A    between atoms: _41  and  _43
REMARK   18  A    between atoms: _43  and  _44
REMARK   19  A    between atoms: _43  and  _46
REMARK   20  A    between atoms: _46  and  _47
REMARK   21  A    between atoms: _53  and  _55
REMARK   22  A    between atoms: _55  and  _56
REMARK   23  A    between atoms: _55  and  _58
REMARK   24  A    between atoms: _58  and  _59
REMARK   25  A    between atoms: _64  and  _65
REMARK   26  A    between atoms: _67  and  _69
REMARK   27  A    between atoms: _69  and  _70
REMARK   28  A    between atoms: _69  and  _72
REMARK   29  A    between atoms: _72  and  _73
REMARK   30  A    between atoms: _79  and  _81
REMARK   31  A    between atoms: _81  and  _82
REMARK   32  A    between atoms: _85  and  _87
REMARK   33  A    between atoms: _87  and  _88
REMARK   34  A    between atoms: _87  and  _90
REMARK   35  A    between atoms: _93  and  _95
REMARK   36  A    between atoms: _95  and  _96
REMARK   37  A    between atoms: _98  and  _100
REMARK   38  A    between atoms: _100  and  _101
REMARK   39  A    between atoms: _100  and  _103
REMARK   40  A    between atoms: _106  and  _108
REMARK   41  A    between atoms: _108  and  _109
REMARK   42  A    between atoms: _108  and  _111
REMARK   43  A    between atoms: _111  and  _112
REMARK   44  A    between atoms: _118  and  _120
REMARK   45  A    between atoms: _120  and  _121
REMARK   46  A    between atoms: _120  and  _123
REMARK   47  A    between atoms: _126  and  _128
REMARK   48  A    between atoms: _128  and  _129
REMARK   49  A    between atoms: _128  and  _131
REMARK   50  A    between atoms: _131  and  _132
REMARK   51  A    between atoms: _138  and  _140
REMARK   52  A    between atoms: _140  and  _141
REMARK   53  A    between atoms: _140  and  _143
REMARK   54  A    between atoms: _143  and  _144
REMARK   55  A    between atoms: _144  and  _145
REMARK   56  A    between atoms: _147  and  _149
REMARK   57  A    between atoms: _149  and  _150
REMARK   58  A    between atoms: _149  and  _152
REMARK   59  A    between atoms: _152  and  _153
REMARK   60  A    between atoms: _156  and  _158
REMARK   61  A    between atoms: _158  and  _159
REMARK   62  A    between atoms: _158  and  _161
REMARK   63  A    between atoms: _161  and  _162
REMARK   64  A    between atoms: _162  and  _163
REMARK   65  A    between atoms: _166  and  _168
REMARK   66  A    between atoms: _168  and  _169
REMARK   67  A    between atoms: _168  and  _171
REMARK   68  A    between atoms: _171  and  _172
REMARK   69  A    between atoms: _172  and  _173
REMARK   70  A    between atoms: _176  and  _178
REMARK   71  A    between atoms: _178  and  _179
REMARK   72  A    between atoms: _178  and  _181
REMARK   73  A    between atoms: _181  and  _182
REMARK   74  A    between atoms: _187  and  _188
REMARK   75  A    between atoms: _190  and  _192
REMARK   76  A    between atoms: _192  and  _193
REMARK   77  A    between atoms: _192  and  _195
REMARK   78  A    between atoms: _195  and  _196
REMARK   79  A    between atoms: _206  and  _208
REMARK   80  A    between atoms: _208  and  _209
REMARK   81  A    between atoms: _208  and  _211
REMARK   82  A    between atoms: _211  and  _212
REMARK   83  A    between atoms: _215  and  _217
REMARK   84  A    between atoms: _217  and  _218
REMARK   85  A    between atoms: _217  and  _220
REMARK   86  A    between atoms: _220  and  _221
REMARK   87  A    between atoms: _221  and  _222
REMARK   88  A    between atoms: _222  and  _223
REMARK   89  A    between atoms: _232  and  _234
REMARK   90  A    between atoms: _234  and  _235
REMARK   91  A    between atoms: _234  and  _237
REMARK   92  A    between atoms: _237  and  _238
REMARK   93  A    between atoms: _238  and  _239
REMARK   94  A    between atoms: _242  and  _244
REMARK   95  A    between atoms: _244  and  _245
REMARK   96  A    between atoms: _244  and  _247
REMARK   97  A    between atoms: _247  and  _248
REMARK   98  A    between atoms: _251  and  _253
REMARK   99  A    between atoms: _253  and  _254
REMARK  100  A    between atoms: _253  and  _256
REMARK  101  A    between atoms: _256  and  _257
REMARK  102  A    between atoms: _257  and  _258
REMARK  103  A    between atoms: _263  and  _265
REMARK  104  A    between atoms: _265  and  _266
REMARK  105  A    between atoms: _265  and  _268
REMARK  106  A    between atoms: _268  and  _269
REMARK  107  A    between atoms: _272  and  _274
REMARK  108  A    between atoms: _274  and  _275
REMARK  109  A    between atoms: _274  and  _277
REMARK  110  A    between atoms: _277  and  _278
REMARK  111  A    between atoms: _280  and  _282
REMARK  112  A    between atoms: _282  and  _283
REMARK  113  A    between atoms: _282  and  _285
REMARK  114  A    between atoms: _285  and  _286
REMARK  115  A    between atoms: _286  and  _287
REMARK  116  A    between atoms: _287  and  _288
REMARK  117  A    between atoms: _288  and  _289
REMARK  118  A    between atoms: _293  and  _295
REMARK  119  A    between atoms: _295  and  _296
REMARK  120  A    between atoms: _295  and  _298
REMARK  121  A    between atoms: _298  and  _299
REMARK  122  A    between atoms: _302  and  _304
REMARK  123  A    between atoms: _304  and  _305
REMARK  124  A    between atoms: _304  and  _307
REMARK  125  A    between atoms: _307  and  _308
REMARK  126  A    between atoms: _313  and  _315
REMARK  127  A    between atoms: _315  and  _316
REMARK  128  A    between atoms: _315  and  _318
REMARK  129  A    between atoms: _318  and  _319
REMARK  130  A    between atoms: _319  and  _320
REMARK  131  A    between atoms: _325  and  _327
REMARK  132  A    between atoms: _327  and  _328
REMARK  133  A    between atoms: _327  and  _330
REMARK  134  A    between atoms: _330  and  _331
REMARK  135  A    between atoms: _334  and  _336
REMARK  136  A    between atoms: _336  and  _337
REMARK  137  A    between atoms: _336  and  _339
REMARK  138  A    between atoms: _339  and  _340
REMARK  139  A    between atoms: _345  and  _346
REMARK  140  A    between atoms: _348  and  _350
REMARK  141  A    between atoms: _350  and  _351
REMARK  142  A    between atoms: _350  and  _353
REMARK  143  A    between atoms: _353  and  _354
REMARK  144  A    between atoms: _354  and  _355
REMARK  145  A    between atoms: _355  and  _356
REMARK  146  A    between atoms: _365  and  _367
REMARK  147  A    between atoms: _367  and  _368
REMARK  148  A    between atoms: _367  and  _370
REMARK  149  A    between atoms: _370  and  _371
REMARK  150  A    between atoms: _371  and  _372
REMARK  151  A    between atoms: _375  and  _377
REMARK  152  A    between atoms: _377  and  _378
REMARK  153  A    between atoms: _377  and  _380
REMARK  154  A    between atoms: _380  and  _381
REMARK  155  A    between atoms: _383  and  _385
REMARK  156  A    between atoms: _385  and  _386
REMARK  157  A    between atoms: _385  and  _388
REMARK  158  A    between atoms: _388  and  _389
REMARK  159  A    between atoms: _392  and  _394
REMARK  160  A    between atoms: _394  and  _395
REMARK  161  A    between atoms: _394  and  _397
REMARK  162  A    between atoms: _397  and  _398
REMARK  163  A    between atoms: _398  and  _399
REMARK  164  A    between atoms: _399  and  _400
REMARK  165  A    between atoms: _409  and  _411
REMARK  166  A    between atoms: _411  and  _412
REMARK  167  A    between atoms: _411  and  _414
REMARK  168  A    between atoms: _414  and  _415
REMARK  169  A    between atoms: _420  and  _422
REMARK  170  A    between atoms: _422  and  _423
REMARK  171  A    between atoms: _422  and  _425
REMARK  172  A    between atoms: _425  and  _426
REMARK  173  A    between atoms: _429  and  _431
REMARK  174  A    between atoms: _431  and  _432
REMARK  175  A    between atoms: _431  and  _434
REMARK  176  A    between atoms: _434  and  _435
REMARK  177  A    between atoms: _440  and  _441
REMARK  178  A    between atoms: _443  and  _445
REMARK  179  A    between atoms: _445  and  _446
REMARK  180  A    between atoms: _445  and  _448
REMARK  181  A    between atoms: _448  and  _449
REMARK  182  A    between atoms: _452  and  _454
REMARK  183  A    between atoms: _454  and  _455
REMARK  184  A    between atoms: _454  and  _457
REMARK  185  A    between atoms: _457  and  _458
REMARK  186  A    between atoms: _458  and  _459
REMARK  187  A    between atoms: _464  and  _466
REMARK  188  A    between atoms: _466  and  _467
REMARK  189  A    between atoms: _466  and  _469
REMARK  190  A    between atoms: _469  and  _470
REMARK  191  A    between atoms: _470  and  _471
REMARK  192  A    between atoms: _471  and  _472
REMARK  193  A    between atoms: _481  and  _483
REMARK  194  A    between atoms: _483  and  _484
REMARK  195  A    between atoms: _483  and  _486
REMARK  196  A    between atoms: _486  and  _487
REMARK  197  A    between atoms: _487  and  _488
REMARK  198  A    between atoms: _490  and  _492
REMARK  199  A    between atoms: _492  and  _493
REMARK  200  A    between atoms: _492  and  _495
REMARK  201  A    between atoms: _495  and  _496
REMARK  202  A    between atoms: _501  and  _502
REMARK  203  A    between atoms: _504  and  _506
REMARK  204  A    between atoms: _506  and  _507
REMARK  205  A    between atoms: _509  and  _511
REMARK  206  A    between atoms: _511  and  _512
REMARK  207  A    between atoms: _511  and  _514
REMARK  208  A    between atoms: _514  and  _515
REMARK  209  A    between atoms: _515  and  _869
REMARK  210  A    between atoms: _516  and  _518
REMARK  211  A    between atoms: _518  and  _519
REMARK  212  A    between atoms: _518  and  _521
REMARK  213  A    between atoms: _521  and  _522
REMARK  214  A    between atoms: _525  and  _527
REMARK  215  A    between atoms: _527  and  _528
REMARK  216  A    between atoms: _527  and  _530
REMARK  217  A    between atoms: _530  and  _531
REMARK  218  A    between atoms: _531  and  _532
REMARK  219  A    between atoms: _537  and  _539
REMARK  220  A    between atoms: _539  and  _540
REMARK  221  A    between atoms: _539  and  _542
REMARK  222  A    between atoms: _542  and  _543
REMARK  223  A    between atoms: _545  and  _547
REMARK  224  A    between atoms: _547  and  _548
REMARK  225  A    between atoms: _551  and  _553
REMARK  226  A    between atoms: _553  and  _554
REMARK  227  A    between atoms: _553  and  _556
REMARK  228  A    between atoms: _556  and  _557
REMARK  229  A    between atoms: _562  and  _563
REMARK  230  A    between atoms: _565  and  _567
REMARK  231  A    between atoms: _567  and  _568
REMARK  232  A    between atoms: _567  and  _570
REMARK  233  A    between atoms: _570  and  _571
REMARK  234  A    between atoms: _576  and  _577
REMARK  235  A    between atoms: _579  and  _581
REMARK  236  A    between atoms: _581  and  _582
REMARK  237  A    between atoms: _581  and  _584
REMARK  238  A    between atoms: _584  and  _585
REMARK  239  A    between atoms: _588  and  _590
REMARK  240  A    between atoms: _590  and  _591
REMARK  241  A    between atoms: _594  and  _596
REMARK  242  A    between atoms: _596  and  _597
REMARK  243  A    between atoms: _596  and  _599
REMARK  244  A    between atoms: _599  and  _600
REMARK  245  A    between atoms: _610  and  _612
REMARK  246  A    between atoms: _612  and  _613
REMARK  247  A    between atoms: _616  and  _618
REMARK  248  A    between atoms: _618  and  _619
REMARK  249  A    between atoms: _622  and  _624
REMARK  250  A    between atoms: _624  and  _625
REMARK  251  A    between atoms: _624  and  _627
REMARK  252  A    between atoms: _627  and  _628
REMARK  253  A    between atoms: _628  and  _629
REMARK  254  A    between atoms: _634  and  _636
REMARK  255  A    between atoms: _636  and  _637
REMARK  256  A    between atoms: _636  and  _639
REMARK  257  A    between atoms: _639  and  _640
REMARK  258  A    between atoms: _643  and  _645
REMARK  259  A    between atoms: _645  and  _646
REMARK  260  A    between atoms: _645  and  _648
REMARK  261  A    between atoms: _648  and  _649
REMARK  262  A    between atoms: _652  and  _654
REMARK  263  A    between atoms: _654  and  _655
REMARK  264  A    between atoms: _654  and  _657
REMARK  265  A    between atoms: _657  and  _658
REMARK  266  A    between atoms: _658  and  _659
REMARK  267  A    between atoms: _664  and  _666
REMARK  268  A    between atoms: _666  and  _667
REMARK  269  A    between atoms: _666  and  _669
REMARK  270  A    between atoms: _669  and  _670
REMARK  271  A    between atoms: _670  and  _671
REMARK  272  A    between atoms: _671  and  _672
REMARK  273  A    between atoms: _681  and  _683
REMARK  274  A    between atoms: _683  and  _684
REMARK  275  A    between atoms: _683  and  _686
REMARK  276  A    between atoms: _686  and  _687
REMARK  277  A    between atoms: _687  and  _688
REMARK  278  A    between atoms: _688  and  _689
REMARK  279  A    between atoms: _689  and  _690
REMARK  280  A    between atoms: _694  and  _696
REMARK  281  A    between atoms: _696  and  _697
REMARK  282  A    between atoms: _696  and  _699
REMARK  283  A    between atoms: _699  and  _700
REMARK  284  A    between atoms: _710  and  _712
REMARK  285  A    between atoms: _712  and  _713
REMARK  286  A    between atoms: _712  and  _715
REMARK  287  A    between atoms: _715  and  _716
REMARK  288  A    between atoms: _716  and  _717
REMARK  289  A    between atoms: _720  and  _722
REMARK  290  A    between atoms: _722  and  _723
REMARK  291  A    between atoms: _726  and  _728
REMARK  292  A    between atoms: _728  and  _729
REMARK  293  A    between atoms: _732  and  _734
REMARK  294  A    between atoms: _734  and  _735
REMARK  295  A    between atoms: _734  and  _737
REMARK  296  A    between atoms: _737  and  _738
REMARK  297  A    between atoms: _738  and  _739
REMARK  298  A    between atoms: _739  and  _740
REMARK  299  A    between atoms: _749  and  _751
REMARK  300  A    between atoms: _751  and  _752
REMARK  301  A    between atoms: _751  and  _754
REMARK  302  A    between atoms: _754  and  _755
REMARK  303  A    between atoms: _755  and  _756
REMARK  304  A    between atoms: _759  and  _761
REMARK  305  A    between atoms: _761  and  _762
REMARK  306  A    between atoms: _765  and  _767
REMARK  307  A    between atoms: _767  and  _768
REMARK  308  A    between atoms: _767  and  _770
REMARK  309  A    between atoms: _770  and  _771
REMARK  310  A    between atoms: _771  and  _772
REMARK  311  A    between atoms: _775  and  _777
REMARK  312  A    between atoms: _777  and  _778
REMARK  313  A    between atoms: _777  and  _780
REMARK  314  A    between atoms: _780  and  _781
REMARK  315  A    between atoms: _781  and  _782
REMARK  316  A    between atoms: _787  and  _789
REMARK  317  A    between atoms: _789  and  _790
REMARK  318  A    between atoms: _789  and  _792
REMARK  319  A    between atoms: _792  and  _793
REMARK  320  A    between atoms: _803  and  _805
REMARK  321  A    between atoms: _805  and  _806
REMARK  322  A    between atoms: _805  and  _808
REMARK  323  A    between atoms: _808  and  _809
REMARK  324  A    between atoms: _809  and  _810
REMARK  325  A    between atoms: _810  and  _811
REMARK  326  A    between atoms: _820  and  _822
REMARK  327  A    between atoms: _822  and  _823
REMARK  328  A    between atoms: _826  and  _828
REMARK  329  A    between atoms: _828  and  _829
REMARK  330  A    between atoms: _828  and  _831
REMARK  331  A    between atoms: _831  and  _832
REMARK  332  A    between atoms: _837  and  _838
REMARK  333  A    between atoms: _840  and  _842
REMARK  334  A    between atoms: _842  and  _843
REMARK  335  A    between atoms: _842  and  _845
REMARK  336  A    between atoms: _845  and  _846
REMARK  337  A    between atoms: _849  and  _851
REMARK  338  A    between atoms: _851  and  _852
REMARK  339  A    between atoms: _854  and  _856
REMARK  340  A    between atoms: _856  and  _857
REMARK  341  A    between atoms: _856  and  _859
REMARK  342  A    between atoms: _859  and  _860
REMARK  343  A    between atoms: _863  and  _865
REMARK  344  A    between atoms: _865  and  _866
REMARK  345  A    between atoms: _865  and  _868
REMARK  346  A    between atoms: _868  and  _869
REMARK  347  A    between atoms: _870  and  _872
REMARK  348  A    between atoms: _872  and  _873
REMARK  349  A    between atoms: _872  and  _875
REMARK  350  A    between atoms: _878  and  _880
REMARK  351  A    between atoms: _880  and  _881
REMARK  352  A    between atoms: _880  and  _883
REMARK  353  A    between atoms: _883  and  _884
REMARK  354  A    between atoms: _884  and  _885
REMARK  355  A    between atoms: _888  and  _890
REMARK  356  A    between atoms: _890  and  _891
REMARK  357  A    between atoms: _890  and  _893
REMARK  358  A    between atoms: _893  and  _894
REMARK  359  A    between atoms: _904  and  _906
REMARK  360  A    between atoms: _906  and  _907
REMARK  361  A    between atoms: _906  and  _909
REMARK  362  A    between atoms: _909  and  _910
REMARK  363  A    between atoms: _913  and  _915
REMARK  364  A    between atoms: _915  and  _916
REMARK  365  A    between atoms: _915  and  _918
REMARK  366  A    between atoms: _918  and  _919
REMARK  367  A    between atoms: _919  and  _920
REMARK  368  A    between atoms: _920  and  _921
REMARK  369  A    between atoms: _930  and  _932
REMARK  370  A    between atoms: _932  and  _933
REMARK  371  A    between atoms: _932  and  _935
REMARK  372  A    between atoms: _935  and  _936
REMARK  373  A    between atoms: _941  and  _942
REMARK  374  A    between atoms: _944  and  _946
REMARK  375  A    between atoms: _946  and  _947
REMARK  376  A    between atoms: _946  and  _949
REMARK  377  A    between atoms: _949  and  _950
REMARK                            x       y       z     vdW  Elec       q    Type
REMARK                         _______ _______ _______ _____ _____    ______ ____
ROOT
ATOM      1  O   HOH     1      23.939  24.640  43.572  0.00  0.00    +0.000 OA
ENDROOT
TORSDOF 0
REMARK  Name = ../refined-set-2016/1xr9/1xr9_pocket.pdb
REMARK  377 active torsions:
REMARK  status: ('A' for Active; 'I' for Inactive)
REMARK    1  A    between atoms: _1  and  _3
REMARK    2  A    between atoms: _3  and  _4
REMARK    3  A    between atoms: _3  and  _6
REMARK    4  A    between atoms: _6  and  _7
REMARK    5  A    between atoms: _7  and  _8
REMARK    6  A    between atoms: _10  and  _12
REMARK    7  A    between atoms: _12  and  _13
REMARK    8  A    between atoms: _12  and  _15
REMARK    9  A    between atoms: _15  and  _16
REMARK   10  A    between atoms: _16  and  _17
REMARK   11  A    between atoms: _17  and  _18
REMARK   12  A    between atoms: _27  and  _29
REMARK   13  A    between atoms: _29  and  _30
REMARK   14  A    between atoms: _29  and  _32
REMARK   15  A    between atoms: _32  and  _33
REMARK   16  A    between atoms: _38  and  _39
REMARK   17  A    between atoms: _41  and  _43
REMARK   18  A    between atoms: _43  and  _44
REMARK   19  A    between atoms: _43  and  _46
REMARK   20  A    between atoms: _46  and  _47
REMARK   21  A    between atoms: _53  and  _55
REMARK   22  A    between atoms: _55  and  _56
REMARK   23  A    between atoms: _55  and  _58
REMARK   24  A    between atoms: _58  and  _59
REMARK   25  A    between atoms: _64  and  _65
REMARK   26  A    between atoms: _67  and  _69
REMARK   27  A    between atoms: _69  and  _70
REMARK   28  A    between atoms: _69  and  _72
REMARK   29  A    between atoms: _72  and  _73
REMARK   30  A    between atoms: _79  and  _81
REMARK   31  A    between atoms: _81  and  _82
REMARK   32  A    between atoms: _85  and  _87
REMARK   33  A    between atoms: _87  and  _88
REMARK   34  A    between atoms: _87  and  _90
REMARK   35  A    between atoms: _93  and  _95
REMARK   36  A    between atoms: _95  and  _96
REMARK   37  A    between atoms: _98  and  _100
REMARK   38  A    between atoms: _100  and  _101
REMARK   39  A    between atoms: _100  and  _103
REMARK   40  A    between atoms: _106  and  _108
REMARK   41  A    between atoms: _108  and  _109
REMARK   42  A    between atoms: _108  and  _111
REMARK   43  A    between atoms: _111  and  _112
REMARK   44  A    between atoms: _118  and  _120
REMARK   45  A    between atoms: _120  and  _121
REMARK   46  A    between atoms: _120  and  _123
REMARK   47  A    between atoms: _126  and  _128
REMARK   48  A    between atoms: _128  and  _129
REMARK   49  A    between atoms: _128  and  _131
REMARK   50  A    between atoms: _131  and  _132
REMARK   51  A    between atoms: _138  and  _140
REMARK   52  A    between atoms: _140  and  _141
REMARK   53  A    between atoms: _140  and  _143
REMARK   54  A    between atoms: _143  and  _144
REMARK   55  A    between atoms: _144  and  _145
REMARK   56  A    between atoms: _147  and  _149
REMARK   57  A    between atoms: _149  and  _150
REMARK   58  A    between atoms: _149  and  _152
REMARK   59  A    between atoms: _152  and  _153
REMARK   60  A    between atoms: _156  and  _158
REMARK   61  A    between atoms: _158  and  _159
REMARK   62  A    between atoms: _158  and  _161
REMARK   63  A    between atoms: _161  and  _162
REMARK   64  A    between atoms: _162  and  _163
REMARK   65  A    between atoms: _166  and  _168
REMARK   66  A    between atoms: _168  and  _169
REMARK   67  A    between atoms: _168  and  _171
REMARK   68  A    between atoms: _171  and  _172
REMARK   69  A    between atoms: _172  and  _173
REMARK   70  A    between atoms: _176  and  _178
REMARK   71  A    between atoms: _178  and  _179
REMARK   72  A    between atoms: _178  and  _181
REMARK   73  A    between atoms: _181  and  _182
REMARK   74  A    between atoms: _187  and  _188
REMARK   75  A    between atoms: _190  and  _192
REMARK   76  A    between atoms: _192  and  _193
REMARK   77  A    between atoms: _192  and  _195
REMARK   78  A    between atoms: _195  and  _196
REMARK   79  A    between atoms: _206  and  _208
REMARK   80  A    between atoms: _208  and  _209
REMARK   81  A    between atoms: _208  and  _211
REMARK   82  A    between atoms: _211  and  _212
REMARK   83  A    between atoms: _215  and  _217
REMARK   84  A    between atoms: _217  and  _218
REMARK   85  A    between atoms: _217  and  _220
REMARK   86  A    between atoms: _220  and  _221
REMARK   87  A    between atoms: _221  and  _222
REMARK   88  A    between atoms: _222  and  _223
REMARK   89  A    between atoms: _232  and  _234
REMARK   90  A    between atoms: _234  and  _235
REMARK   91  A    between atoms: _234  and  _237
REMARK   92  A    between atoms: _237  and  _238
REMARK   93  A    between atoms: _238  and  _239
REMARK   94  A    between atoms: _242  and  _244
REMARK   95  A    between atoms: _244  and  _245
REMARK   96  A    between atoms: _244  and  _247
REMARK   97  A    between atoms: _247  and  _248
REMARK   98  A    between atoms: _251  and  _253
REMARK   99  A    between atoms: _253  and  _254
REMARK  100  A    between atoms: _253  and  _256
REMARK  101  A    between atoms: _256  and  _257
REMARK  102  A    between atoms: _257  and  _258
REMARK  103  A    between atoms: _263  and  _265
REMARK  104  A    between atoms: _265  and  _266
REMARK  105  A    between atoms: _265  and  _268
REMARK  106  A    between atoms: _268  and  _269
REMARK  107  A    between atoms: _272  and  _274
REMARK  108  A    between atoms: _274  and  _275
REMARK  109  A    between atoms: _274  and  _277
REMARK  110  A    between atoms: _277  and  _278
REMARK  111  A    between atoms: _280  and  _282
REMARK  112  A    between atoms: _282  and  _283
REMARK  113  A    between atoms: _282  and  _285
REMARK  114  A    between atoms: _285  and  _286
REMARK  115  A    between atoms: _286  and  _287
REMARK  116  A    between atoms: _287  and  _288
REMARK  117  A    between atoms: _288  and  _289
REMARK  118  A    between atoms: _293  and  _295
REMARK  119  A    between atoms: _295  and  _296
REMARK  120  A    between atoms: _295  and  _298
REMARK  121  A    between atoms: _298  and  _299
REMARK  122  A    between atoms: _302  and  _304
REMARK  123  A    between atoms: _304  and  _305
REMARK  124  A    between atoms: _304  and  _307
REMARK  125  A    between atoms: _307  and  _308
REMARK  126  A    between atoms: _313  and  _315
REMARK  127  A    between atoms: _315  and  _316
REMARK  128  A    between atoms: _315  and  _318
REMARK  129  A    between atoms: _318  and  _319
REMARK  130  A    between atoms: _319  and  _320
REMARK  131  A    between atoms: _325  and  _327
REMARK  132  A    between atoms: _327  and  _328
REMARK  133  A    between atoms: _327  and  _330
REMARK  134  A    between atoms: _330  and  _331
REMARK  135  A    between atoms: _334  and  _336
REMARK  136  A    between atoms: _336  and  _337
REMARK  137  A    between atoms: _336  and  _339
REMARK  138  A    between atoms: _339  and  _340
REMARK  139  A    between atoms: _345  and  _346
REMARK  140  A    between atoms: _348  and  _350
REMARK  141  A    between atoms: _350  and  _351
REMARK  142  A    between atoms: _350  and  _353
REMARK  143  A    between atoms: _353  and  _354
REMARK  144  A    between atoms: _354  and  _355
REMARK  145  A    between atoms: _355  and  _356
REMARK  146  A    between atoms: _365  and  _367
REMARK  147  A    between atoms: _367  and  _368
REMARK  148  A    between atoms: _367  and  _370
REMARK  149  A    between atoms: _370  and  _371
REMARK  150  A    between atoms: _371  and  _372
REMARK  151  A    between atoms: _375  and  _377
REMARK  152  A    between atoms: _377  and  _378
REMARK  153  A    between atoms: _377  and  _380
REMARK  154  A    between atoms: _380  and  _381
REMARK  155  A    between atoms: _383  and  _385
REMARK  156  A    between atoms: _385  and  _386
REMARK  157  A    between atoms: _385  and  _388
REMARK  158  A    between atoms: _388  and  _389
REMARK  159  A    between atoms: _392  and  _394
REMARK  160  A    between atoms: _394  and  _395
REMARK  161  A    between atoms: _394  and  _397
REMARK  162  A    between atoms: _397  and  _398
REMARK  163  A    between atoms: _398  and  _399
REMARK  164  A    between atoms: _399  and  _400
REMARK  165  A    between atoms: _409  and  _411
REMARK  166  A    between atoms: _411  and  _412
REMARK  167  A    between atoms: _411  and  _414
REMARK  168  A    between atoms: _414  and  _415
REMARK  169  A    between atoms: _420  and  _422
REMARK  170  A    between atoms: _422  and  _423
REMARK  171  A    between atoms: _422  and  _425
REMARK  172  A    between atoms: _425  and  _426
REMARK  173  A    between atoms: _429  and  _431
REMARK  174  A    between atoms: _431  and  _432
REMARK  175  A    between atoms: _431  and  _434
REMARK  176  A    between atoms: _434  and  _435
REMARK  177  A    between atoms: _440  and  _441
REMARK  178  A    between atoms: _443  and  _445
REMARK  179  A    between atoms: _445  and  _446
REMARK  180  A    between atoms: _445  and  _448
REMARK  181  A    between atoms: _448  and  _449
REMARK  182  A    between atoms: _452  and  _454
REMARK  183  A    between atoms: _454  and  _455
REMARK  184  A    between atoms: _454  and  _457
REMARK  185  A    between atoms: _457  and  _458
REMARK  186  A    between atoms: _458  and  _459
REMARK  187  A    between atoms: _464  and  _466
REMARK  188  A    between atoms: _466  and  _467
REMARK  189  A    between atoms: _466  and  _469
REMARK  190  A    between atoms: _469  and  _470
REMARK  191  A    between atoms: _470  and  _471
REMARK  192  A    between atoms: _471  and  _472
REMARK  193  A    between atoms: _481  and  _483
REMARK  194  A    between atoms: _483  and  _484
REMARK  195  A    between atoms: _483  and  _486
REMARK  196  A    between atoms: _486  and  _487
REMARK  197  A    between atoms: _487  and  _488
REMARK  198  A    between atoms: _490  and  _492
REMARK  199  A    between atoms: _492  and  _493
REMARK  200  A    between atoms: _492  and  _495
REMARK  201  A    between atoms: _495  and  _496
REMARK  202  A    between atoms: _501  and  _502
REMARK  203  A    between atoms: _504  and  _506
REMARK  204  A    between atoms: _506  and  _507
REMARK  205  A    between atoms: _509  and  _511
REMARK  206  A    between atoms: _511  and  _512
REMARK  207  A    between atoms: _511  and  _514
REMARK  208  A    between atoms: _514  and  _515
REMARK  209  A    between atoms: _515  and  _869
REMARK  210  A    between atoms: _516  and  _518
REMARK  211  A    between atoms: _518  and  _519
REMARK  212  A    between atoms: _518  and  _521
REMARK  213  A    between atoms: _521  and  _522
REMARK  214  A    between atoms: _525  and  _527
REMARK  215  A    between atoms: _527  and  _528
REMARK  216  A    between atoms: _527  and  _530
REMARK  217  A    between atoms: _530  and  _531
REMARK  218  A    between atoms: _531  and  _532
REMARK  219  A    between atoms: _537  and  _539
REMARK  220  A    between atoms: _539  and  _540
REMARK  221  A    between atoms: _539  and  _542
REMARK  222  A    between atoms: _542  and  _543
REMARK  223  A    between atoms: _545  and  _547
REMARK  224  A    between atoms: _547  and  _548
REMARK  225  A    between atoms: _551  and  _553
REMARK  226  A    between atoms: _553  and  _554
REMARK  227  A    between atoms: _553  and  _556
REMARK  228  A    between atoms: _556  and  _557
REMARK  229  A    between atoms: _562  and  _563
REMARK  230  A    between atoms: _565  and  _567
REMARK  231  A    between atoms: _567  and  _568
REMARK  232  A    between atoms: _567  and  _570
REMARK  233  A    between atoms: _570  and  _571
REMARK  234  A    between atoms: _576  and  _577
REMARK  235  A    between atoms: _579  and  _581
REMARK  236  A    between atoms: _581  and  _582
REMARK  237  A    between atoms: _581  and  _584
REMARK  238  A    between atoms: _584  and  _585
REMARK  239  A    between atoms: _588  and  _590
REMARK  240  A    between atoms: _590  and  _591
REMARK  241  A    between atoms: _594  and  _596
REMARK  242  A    between atoms: _596  and  _597
REMARK  243  A    between atoms: _596  and  _599
REMARK  244  A    between atoms: _599  and  _600
REMARK  245  A    between atoms: _610  and  _612
REMARK  246  A    between atoms: _612  and  _613
REMARK  247  A    between atoms: _616  and  _618
REMARK  248  A    between atoms: _618  and  _619
REMARK  249  A    between atoms: _622  and  _624
REMARK  250  A    between atoms: _624  and  _625
REMARK  251  A    between atoms: _624  and  _627
REMARK  252  A    between atoms: _627  and  _628
REMARK  253  A    between atoms: _628  and  _629
REMARK  254  A    between atoms: _634  and  _636
REMARK  255  A    between atoms: _636  and  _637
REMARK  256  A    between atoms: _636  and  _639
REMARK  257  A    between atoms: _639  and  _640
REMARK  258  A    between atoms: _643  and  _645
REMARK  259  A    between atoms: _645  and  _646
REMARK  260  A    between atoms: _645  and  _648
REMARK  261  A    between atoms: _648  and  _649
REMARK  262  A    between atoms: _652  and  _654
REMARK  263  A    between atoms: _654  and  _655
REMARK  264  A    between atoms: _654  and  _657
REMARK  265  A    between atoms: _657  and  _658
REMARK  266  A    between atoms: _658  and  _659
REMARK  267  A    between atoms: _664  and  _666
REMARK  268  A    between atoms: _666  and  _667
REMARK  269  A    between atoms: _666  and  _669
REMARK  270  A    between atoms: _669  and  _670
REMARK  271  A    between atoms: _670  and  _671
REMARK  272  A    between atoms: _671  and  _672
REMARK  273  A    between atoms: _681  and  _683
REMARK  274  A    between atoms: _683  and  _684
REMARK  275  A    between atoms: _683  and  _686
REMARK  276  A    between atoms: _686  and  _687
REMARK  277  A    between atoms: _687  and  _688
REMARK  278  A    between atoms: _688  and  _689
REMARK  279  A    between atoms: _689  and  _690
REMARK  280  A    between atoms: _694  and  _696
REMARK  281  A    between atoms: _696  and  _697
REMARK  282  A    between atoms: _696  and  _699
REMARK  283  A    between atoms: _699  and  _700
REMARK  284  A    between atoms: _710  and  _712
REMARK  285  A    between atoms: _712  and  _713
REMARK  286  A    between atoms: _712  and  _715
REMARK  287  A    between atoms: _715  and  _716
REMARK  288  A    between atoms: _716  and  _717
REMARK  289  A    between atoms: _720  and  _722
REMARK  290  A    between atoms: _722  and  _723
REMARK  291  A    between atoms: _726  and  _728
REMARK  292  A    between atoms: _728  and  _729
REMARK  293  A    between atoms: _732  and  _734
REMARK  294  A    between atoms: _734  and  _735
REMARK  295  A    between atoms: _734  and  _737
REMARK  296  A    between atoms: _737  and  _738
REMARK  297  A    between atoms: _738  and  _739
REMARK  298  A    between atoms: _739  and  _740
REMARK  299  A    between atoms: _749  and  _751
REMARK  300  A    between atoms: _751  and  _752
REMARK  301  A    between atoms: _751  and  _754
REMARK  302  A    between atoms: _754  and  _755
REMARK  303  A    between atoms: _755  and  _756
REMARK  304  A    between atoms: _759  and  _761
REMARK  305  A    between atoms: _761  and  _762
REMARK  306  A    between atoms: _765  and  _767
REMARK  307  A    between atoms: _767  and  _768
REMARK  308  A    between atoms: _767  and  _770
REMARK  309  A    between atoms: _770  and  _771
REMARK  310  A    between atoms: _771  and  _772
REMARK  311  A    between atoms: _775  and  _777
REMARK  312  A    between atoms: _777  and  _778
REMARK  313  A    between atoms: _777  and  _780
REMARK  314  A    between atoms: _780  and  _781
REMARK  315  A    between atoms: _781  and  _782
REMARK  316  A    between atoms: _787  and  _789
REMARK  317  A    between atoms: _789  and  _790
REMARK  318  A    between atoms: _789  and  _792
REMARK  319  A    between atoms: _792  and  _793
REMARK  320  A    between atoms: _803  and  _805
REMARK  321  A    between atoms: _805  and  _806
REMARK  322  A    between atoms: _805  and  _808
REMARK  323  A    between atoms: _808  and  _809
REMARK  324  A    between atoms: _809  and  _810
REMARK  325  A    between atoms: _810  and  _811
REMARK  326  A    between atoms: _820  and  _822
REMARK  327  A    between atoms: _822  and  _823
REMARK  328  A    between atoms: _826  and  _828
REMARK  329  A    between atoms: _828  and  _829
REMARK  330  A    between atoms: _828  and  _831
REMARK  331  A    between atoms: _831  and  _832
REMARK  332  A    between atoms: _837  and  _838
REMARK  333  A    between atoms: _840  and  _842
REMARK  334  A    between atoms: _842  and  _843
REMARK  335  A    between atoms: _842  and  _845
REMARK  336  A    between atoms: _845  and  _846
REMARK  337  A    between atoms: _849  and  _851
REMARK  338  A    between atoms: _851  and  _852
REMARK  339  A    between atoms: _854  and  _856
REMARK  340  A    between atoms: _856  and  _857
REMARK  341  A    between atoms: _856  and  _859
REMARK  342  A    between atoms: _859  and  _860
REMARK  343  A    between atoms: _863  and  _865
REMARK  344  A    between atoms: _865  and  _866
REMARK  345  A    between atoms: _865  and  _868
REMARK  346  A    between atoms: _868  and  _869
REMARK  347  A    between atoms: _870  and  _872
REMARK  348  A    between atoms: _872  and  _873
REMARK  349  A    between atoms: _872  and  _875
REMARK  350  A    between atoms: _878  and  _880
REMARK  351  A    between atoms: _880  and  _881
REMARK  352  A    between atoms: _880  and  _883
REMARK  353  A    between atoms: _883  and  _884
REMARK  354  A    between atoms: _884  and  _885
REMARK  355  A    between atoms: _888  and  _890
REMARK  356  A    between atoms: _890  and  _891
REMARK  357  A    between atoms: _890  and  _893
REMARK  358  A    between atoms: _893  and  _894
REMARK  359  A    between atoms: _904  and  _906
REMARK  360  A    between atoms: _906  and  _907
REMARK  361  A    between atoms: _906  and  _909
REMARK  362  A    between atoms: _909  and  _910
REMARK  363  A    between atoms: _913  and  _915
REMARK  364  A    between atoms: _915  and  _916
REMARK  365  A    between atoms: _915  and  _918
REMARK  366  A    between atoms: _918  and  _919
REMARK  367  A    between atoms: _919  and  _920
REMARK  368  A    between atoms: _920  and  _921
REMARK  369  A    between atoms: _930  and  _932
REMARK  370  A    between atoms: _932  and  _933
REMARK  371  A    between atoms: _932  and  _935
REMARK  372  A    between atoms: _935  and  _936
REMARK  373  A    between atoms: _941  and  _942
REMARK  374  A    between atoms: _944  and  _946
REMARK  375  A    between atoms: _946  and  _947
REMARK  376  A    between atoms: _946  and  _949
REMARK  377  A    between atoms: _949  and  _950
REMARK                            x       y       z     vdW  Elec       q    Type
REMARK                         _______ _______ _______ _____ _____    ______ ____
ROOT
ATOM      1  O   HOH     1      28.803  25.229  42.582  0.00  0.00    +0.000 OA
ENDROOT
TORSDOF 0
REMARK  Name = ../refined-set-2016/1xr9/1xr9_pocket.pdb
REMARK  377 active torsions:
REMARK  status: ('A' for Active; 'I' for Inactive)
REMARK    1  A    between atoms: _1  and  _3
REMARK    2  A    between atoms: _3  and  _4
REMARK    3  A    between atoms: _3  and  _6
REMARK    4  A    between atoms: _6  and  _7
REMARK    5  A    between atoms: _7  and  _8
REMARK    6  A    between atoms: _10  and  _12
REMARK    7  A    between atoms: _12  and  _13
REMARK    8  A    between atoms: _12  and  _15
REMARK    9  A    between atoms: _15  and  _16
REMARK   10  A    between atoms: _16  and  _17
REMARK   11  A    between atoms: _17  and  _18
REMARK   12  A    between atoms: _27  and  _29
REMARK   13  A    between atoms: _29  and  _30
REMARK   14  A    between atoms: _29  and  _32
REMARK   15  A    between atoms: _32  and  _33
REMARK   16  A    between atoms: _38  and  _39
REMARK   17  A    between atoms: _41  and  _43
REMARK   18  A    between atoms: _43  and  _44
REMARK   19  A    between atoms: _43  and  _46
REMARK   20  A    between atoms: _46  and  _47
REMARK   21  A    between atoms: _53  and  _55
REMARK   22  A    between atoms: _55  and  _56
REMARK   23  A    between atoms: _55  and  _58
REMARK   24  A    between atoms: _58  and  _59
REMARK   25  A    between atoms: _64  and  _65
REMARK   26  A    between atoms: _67  and  _69
REMARK   27  A    between atoms: _69  and  _70
REMARK   28  A    between atoms: _69  and  _72
REMARK   29  A    between atoms: _72  and  _73
REMARK   30  A    between atoms: _79  and  _81
REMARK   31  A    between atoms: _81  and  _82
REMARK   32  A    between atoms: _85  and  _87
REMARK   33  A    between atoms: _87  and  _88
REMARK   34  A    between atoms: _87  and  _90
REMARK   35  A    between atoms: _93  and  _95
REMARK   36  A    between atoms: _95  and  _96
REMARK   37  A    between atoms: _98  and  _100
REMARK   38  A    between atoms: _100  and  _101
REMARK   39  A    between atoms: _100  and  _103
REMARK   40  A    between atoms: _106  and  _108
REMARK   41  A    between atoms: _108  and  _109
REMARK   42  A    between atoms: _108  and  _111
REMARK   43  A    between atoms: _111  and  _112
REMARK   44  A    between atoms: _118  and  _120
REMARK   45  A    between atoms: _120  and  _121
REMARK   46  A    between atoms: _120  and  _123
REMARK   47  A    between atoms: _126  and  _128
REMARK   48  A    between atoms: _128  and  _129
REMARK   49  A    between atoms: _128  and  _131
REMARK   50  A    between atoms: _131  and  _132
REMARK   51  A    between atoms: _138  and  _140
REMARK   52  A    between atoms: _140  and  _141
REMARK   53  A    between atoms: _140  and  _143
REMARK   54  A    between atoms: _143  and  _144
REMARK   55  A    between atoms: _144  and  _145
REMARK   56  A    between atoms: _147  and  _149
REMARK   57  A    between atoms: _149  and  _150
REMARK   58  A    between atoms: _149  and  _152
REMARK   59  A    between atoms: _152  and  _153
REMARK   60  A    between atoms: _156  and  _158
REMARK   61  A    between atoms: _158  and  _159
REMARK   62  A    between atoms: _158  and  _161
REMARK   63  A    between atoms: _161  and  _162
REMARK   64  A    between atoms: _162  and  _163
REMARK   65  A    between atoms: _166  and  _168
REMARK   66  A    between atoms: _168  and  _169
REMARK   67  A    between atoms: _168  and  _171
REMARK   68  A    between atoms: _171  and  _172
REMARK   69  A    between atoms: _172  and  _173
REMARK   70  A    between atoms: _176  and  _178
REMARK   71  A    between atoms: _178  and  _179
REMARK   72  A    between atoms: _178  and  _181
REMARK   73  A    between atoms: _181  and  _182
REMARK   74  A    between atoms: _187  and  _188
REMARK   75  A    between atoms: _190  and  _192
REMARK   76  A    between atoms: _192  and  _193
REMARK   77  A    between atoms: _192  and  _195
REMARK   78  A    between atoms: _195  and  _196
REMARK   79  A    between atoms: _206  and  _208
REMARK   80  A    between atoms: _208  and  _209
REMARK   81  A    between atoms: _208  and  _211
REMARK   82  A    between atoms: _211  and  _212
REMARK   83  A    between atoms: _215  and  _217
REMARK   84  A    between atoms: _217  and  _218
REMARK   85  A    between atoms: _217  and  _220
REMARK   86  A    between atoms: _220  and  _221
REMARK   87  A    between atoms: _221  and  _222
REMARK   88  A    between atoms: _222  and  _223
REMARK   89  A    between atoms: _232  and  _234
REMARK   90  A    between atoms: _234  and  _235
REMARK   91  A    between atoms: _234  and  _237
REMARK   92  A    between atoms: _237  and  _238
REMARK   93  A    between atoms: _238  and  _239
REMARK   94  A    between atoms: _242  and  _244
REMARK   95  A    between atoms: _244  and  _245
REMARK   96  A    between atoms: _244  and  _247
REMARK   97  A    between atoms: _247  and  _248
REMARK   98  A    between atoms: _251  and  _253
REMARK   99  A    between atoms: _253  and  _254
REMARK  100  A    between atoms: _253  and  _256
REMARK  101  A    between atoms: _256  and  _257
REMARK  102  A    between atoms: _257  and  _258
REMARK  103  A    between atoms: _263  and  _265
REMARK  104  A    between atoms: _265  and  _266
REMARK  105  A    between atoms: _265  and  _268
REMARK  106  A    between atoms: _268  and  _269
REMARK  107  A    between atoms: _272  and  _274
REMARK  108  A    between atoms: _274  and  _275
REMARK  109  A    between atoms: _274  and  _277
REMARK  110  A    between atoms: _277  and  _278
REMARK  111  A    between atoms: _280  and  _282
REMARK  112  A    between atoms: _282  and  _283
REMARK  113  A    between atoms: _282  and  _285
REMARK  114  A    between atoms: _285  and  _286
REMARK  115  A    between atoms: _286  and  _287
REMARK  116  A    between atoms: _287  and  _288
REMARK  117  A    between atoms: _288  and  _289
REMARK  118  A    between atoms: _293  and  _295
REMARK  119  A    between atoms: _295  and  _296
REMARK  120  A    between atoms: _295  and  _298
REMARK  121  A    between atoms: _298  and  _299
REMARK  122  A    between atoms: _302  and  _304
REMARK  123  A    between atoms: _304  and  _305
REMARK  124  A    between atoms: _304  and  _307
REMARK  125  A    between atoms: _307  and  _308
REMARK  126  A    between atoms: _313  and  _315
REMARK  127  A    between atoms: _315  and  _316
REMARK  128  A    between atoms: _315  and  _318
REMARK  129  A    between atoms: _318  and  _319
REMARK  130  A    between atoms: _319  and  _320
REMARK  131  A    between atoms: _325  and  _327
REMARK  132  A    between atoms: _327  and  _328
REMARK  133  A    between atoms: _327  and  _330
REMARK  134  A    between atoms: _330  and  _331
REMARK  135  A    between atoms: _334  and  _336
REMARK  136  A    between atoms: _336  and  _337
REMARK  137  A    between atoms: _336  and  _339
REMARK  138  A    between atoms: _339  and  _340
REMARK  139  A    between atoms: _345  and  _346
REMARK  140  A    between atoms: _348  and  _350
REMARK  141  A    between atoms: _350  and  _351
REMARK  142  A    between atoms: _350  and  _353
REMARK  143  A    between atoms: _353  and  _354
REMARK  144  A    between atoms: _354  and  _355
REMARK  145  A    between atoms: _355  and  _356
REMARK  146  A    between atoms: _365  and  _367
REMARK  147  A    between atoms: _367  and  _368
REMARK  148  A    between atoms: _367  and  _370
REMARK  149  A    between atoms: _370  and  _371
REMARK  150  A    between atoms: _371  and  _372
REMARK  151  A    between atoms: _375  and  _377
REMARK  152  A    between atoms: _377  and  _378
REMARK  153  A    between atoms: _377  and  _380
REMARK  154  A    between atoms: _380  and  _381
REMARK  155  A    between atoms: _383  and  _385
REMARK  156  A    between atoms: _385  and  _386
REMARK  157  A    between atoms: _385  and  _388
REMARK  158  A    between atoms: _388  and  _389
REMARK  159  A    between atoms: _392  and  _394
REMARK  160  A    between atoms: _394  and  _395
REMARK  161  A    between atoms: _394  and  _397
REMARK  162  A    between atoms: _397  and  _398
REMARK  163  A    between atoms: _398  and  _399
REMARK  164  A    between atoms: _399  and  _400
REMARK  165  A    between atoms: _409  and  _411
REMARK  166  A    between atoms: _411  and  _412
REMARK  167  A    between atoms: _411  and  _414
REMARK  168  A    between atoms: _414  and  _415
REMARK  169  A    between atoms: _420  and  _422
REMARK  170  A    between atoms: _422  and  _423
REMARK  171  A    between atoms: _422  and  _425
REMARK  172  A    between atoms: _425  and  _426
REMARK  173  A    between atoms: _429  and  _431
REMARK  174  A    between atoms: _431  and  _432
REMARK  175  A    between atoms: _431  and  _434
REMARK  176  A    between atoms: _434  and  _435
REMARK  177  A    between atoms: _440  and  _441
REMARK  178  A    between atoms: _443  and  _445
REMARK  179  A    between atoms: _445  and  _446
REMARK  180  A    between atoms: _445  and  _448
REMARK  181  A    between atoms: _448  and  _449
REMARK  182  A    between atoms: _452  and  _454
REMARK  183  A    between atoms: _454  and  _455
REMARK  184  A    between atoms: _454  and  _457
REMARK  185  A    between atoms: _457  and  _458
REMARK  186  A    between atoms: _458  and  _459
REMARK  187  A    between atoms: _464  and  _466
REMARK  188  A    between atoms: _466  and  _467
REMARK  189  A    between atoms: _466  and  _469
REMARK  190  A    between atoms: _469  and  _470
REMARK  191  A    between atoms: _470  and  _471
REMARK  192  A    between atoms: _471  and  _472
REMARK  193  A    between atoms: _481  and  _483
REMARK  194  A    between atoms: _483  and  _484
REMARK  195  A    between atoms: _483  and  _486
REMARK  196  A    between atoms: _486  and  _487
REMARK  197  A    between atoms: _487  and  _488
REMARK  198  A    between atoms: _490  and  _492
REMARK  199  A    between atoms: _492  and  _493
REMARK  200  A    between atoms: _492  and  _495
REMARK  201  A    between atoms: _495  and  _496
REMARK  202  A    between atoms: _501  and  _502
REMARK  203  A    between atoms: _504  and  _506
REMARK  204  A    between atoms: _506  and  _507
REMARK  205  A    between atoms: _509  and  _511
REMARK  206  A    between atoms: _511  and  _512
REMARK  207  A    between atoms: _511  and  _514
REMARK  208  A    between atoms: _514  and  _515
REMARK  209  A    between atoms: _515  and  _869
REMARK  210  A    between atoms: _516  and  _518
REMARK  211  A    between atoms: _518  and  _519
REMARK  212  A    between atoms: _518  and  _521
REMARK  213  A    between atoms: _521  and  _522
REMARK  214  A    between atoms: _525  and  _527
REMARK  215  A    between atoms: _527  and  _528
REMARK  216  A    between atoms: _527  and  _530
REMARK  217  A    between atoms: _530  and  _531
REMARK  218  A    between atoms: _531  and  _532
REMARK  219  A    between atoms: _537  and  _539
REMARK  220  A    between atoms: _539  and  _540
REMARK  221  A    between atoms: _539  and  _542
REMARK  222  A    between atoms: _542  and  _543
REMARK  223  A    between atoms: _545  and  _547
REMARK  224  A    between atoms: _547  and  _548
REMARK  225  A    between atoms: _551  and  _553
REMARK  226  A    between atoms: _553  and  _554
REMARK  227  A    between atoms: _553  and  _556
REMARK  228  A    between atoms: _556  and  _557
REMARK  229  A    between atoms: _562  and  _563
REMARK  230  A    between atoms: _565  and  _567
REMARK  231  A    between atoms: _567  and  _568
REMARK  232  A    between atoms: _567  and  _570
REMARK  233  A    between atoms: _570  and  _571
REMARK  234  A    between atoms: _576  and  _577
REMARK  235  A    between atoms: _579  and  _581
REMARK  236  A    between atoms: _581  and  _582
REMARK  237  A    between atoms: _581  and  _584
REMARK  238  A    between atoms: _584  and  _585
REMARK  239  A    between atoms: _588  and  _590
REMARK  240  A    between atoms: _590  and  _591
REMARK  241  A    between atoms: _594  and  _596
REMARK  242  A    between atoms: _596  and  _597
REMARK  243  A    between atoms: _596  and  _599
REMARK  244  A    between atoms: _599  and  _600
REMARK  245  A    between atoms: _610  and  _612
REMARK  246  A    between atoms: _612  and  _613
REMARK  247  A    between atoms: _616  and  _618
REMARK  248  A    between atoms: _618  and  _619
REMARK  249  A    between atoms: _622  and  _624
REMARK  250  A    between atoms: _624  and  _625
REMARK  251  A    between atoms: _624  and  _627
REMARK  252  A    between atoms: _627  and  _628
REMARK  253  A    between atoms: _628  and  _629
REMARK  254  A    between atoms: _634  and  _636
REMARK  255  A    between atoms: _636  and  _637
REMARK  256  A    between atoms: _636  and  _639
REMARK  257  A    between atoms: _639  and  _640
REMARK  258  A    between atoms: _643  and  _645
REMARK  259  A    between atoms: _645  and  _646
REMARK  260  A    between atoms: _645  and  _648
REMARK  261  A    between atoms: _648  and  _649
REMARK  262  A    between atoms: _652  and  _654
REMARK  263  A    between atoms: _654  and  _655
REMARK  264  A    between atoms: _654  and  _657
REMARK  265  A    between atoms: _657  and  _658
REMARK  266  A    between atoms: _658  and  _659
REMARK  267  A    between atoms: _664  and  _666
REMARK  268  A    between atoms: _666  and  _667
REMARK  269  A    between atoms: _666  and  _669
REMARK  270  A    between atoms: _669  and  _670
REMARK  271  A    between atoms: _670  and  _671
REMARK  272  A    between atoms: _671  and  _672
REMARK  273  A    between atoms: _681  and  _683
REMARK  274  A    between atoms: _683  and  _684
REMARK  275  A    between atoms: _683  and  _686
REMARK  276  A    between atoms: _686  and  _687
REMARK  277  A    between atoms: _687  and  _688
REMARK  278  A    between atoms: _688  and  _689
REMARK  279  A    between atoms: _689  and  _690
REMARK  280  A    between atoms: _694  and  _696
REMARK  281  A    between atoms: _696  and  _697
REMARK  282  A    between atoms: _696  and  _699
REMARK  283  A    between atoms: _699  and  _700
REMARK  284  A    between atoms: _710  and  _712
REMARK  285  A    between atoms: _712  and  _713
REMARK  286  A    between atoms: _712  and  _715
REMARK  287  A    between atoms: _715  and  _716
REMARK  288  A    between atoms: _716  and  _717
REMARK  289  A    between atoms: _720  and  _722
REMARK  290  A    between atoms: _722  and  _723
REMARK  291  A    between atoms: _726  and  _728
REMARK  292  A    between atoms: _728  and  _729
REMARK  293  A    between atoms: _732  and  _734
REMARK  294  A    between atoms: _734  and  _735
REMARK  295  A    between atoms: _734  and  _737
REMARK  296  A    between atoms: _737  and  _738
REMARK  297  A    between atoms: _738  and  _739
REMARK  298  A    between atoms: _739  and  _740
REMARK  299  A    between atoms: _749  and  _751
REMARK  300  A    between atoms: _751  and  _752
REMARK  301  A    between atoms: _751  and  _754
REMARK  302  A    between atoms: _754  and  _755
REMARK  303  A    between atoms: _755  and  _756
REMARK  304  A    between atoms: _759  and  _761
REMARK  305  A    between atoms: _761  and  _762
REMARK  306  A    between atoms: _765  and  _767
REMARK  307  A    between atoms: _767  and  _768
REMARK  308  A    between atoms: _767  and  _770
REMARK  309  A    between atoms: _770  and  _771
REMARK  310  A    between atoms: _771  and  _772
REMARK  311  A    between atoms: _775  and  _777
REMARK  312  A    between atoms: _777  and  _778
REMARK  313  A    between atoms: _777  and  _780
REMARK  314  A    between atoms: _780  and  _781
REMARK  315  A    between atoms: _781  and  _782
REMARK  316  A    between atoms: _787  and  _789
REMARK  317  A    between atoms: _789  and  _790
REMARK  318  A    between atoms: _789  and  _792
REMARK  319  A    between atoms: _792  and  _793
REMARK  320  A    between atoms: _803  and  _805
REMARK  321  A    between atoms: _805  and  _806
REMARK  322  A    between atoms: _805  and  _808
REMARK  323  A    between atoms: _808  and  _809
REMARK  324  A    between atoms: _809  and  _810
REMARK  325  A    between atoms: _810  and  _811
REMARK  326  A    between atoms: _820  and  _822
REMARK  327  A    between atoms: _822  and  _823
REMARK  328  A    between atoms: _826  and  _828
REMARK  329  A    between atoms: _828  and  _829
REMARK  330  A    between atoms: _828  and  _831
REMARK  331  A    between atoms: _831  and  _832
REMARK  332  A    between atoms: _837  and  _838
REMARK  333  A    between atoms: _840  and  _842
REMARK  334  A    between atoms: _842  and  _843
REMARK  335  A    between atoms: _842  and  _845
REMARK  336  A    between atoms: _845  and  _846
REMARK  337  A    between atoms: _849  and  _851
REMARK  338  A    between atoms: _851  and  _852
REMARK  339  A    between atoms: _854  and  _856
REMARK  340  A    between atoms: _856  and  _857
REMARK  341  A    between atoms: _856  and  _859
REMARK  342  A    between atoms: _859  and  _860
REMARK  343  A    between atoms: _863  and  _865
REMARK  344  A    between atoms: _865  and  _866
REMARK  345  A    between atoms: _865  and  _868
REMARK  346  A    between atoms: _868  and  _869
REMARK  347  A    between atoms: _870  and  _872
REMARK  348  A    between atoms: _872  and  _873
REMARK  349  A    between atoms: _872  and  _875
REMARK  350  A    between atoms: _878  and  _880
REMARK  351  A    between atoms: _880  and  _881
REMARK  352  A    between atoms: _880  and  _883
REMARK  353  A    between atoms: _883  and  _884
REMARK  354  A    between atoms: _884  and  _885
REMARK  355  A    between atoms: _888  and  _890
REMARK  356  A    between atoms: _890  and  _891
REMARK  357  A    between atoms: _890  and  _893
REMARK  358  A    between atoms: _893  and  _894
REMARK  359  A    between atoms: _904  and  _906
REMARK  360  A    between atoms: _906  and  _907
REMARK  361  A    between atoms: _906  and  _909
REMARK  362  A    between atoms: _909  and  _910
REMARK  363  A    between atoms: _913  and  _915
REMARK  364  A    between atoms: _915  and  _916
REMARK  365  A    between atoms: _915  and  _918
REMARK  366  A    between atoms: _918  and  _919
REMARK  367  A    between atoms: _919  and  _920
REMARK  368  A    between atoms: _920  and  _921
REMARK  369  A    between atoms: _930  and  _932
REMARK  370  A    between atoms: _932  and  _933
REMARK  371  A    between atoms: _932  and  _935
REMARK  372  A    between atoms: _935  and  _936
REMARK  373  A    between atoms: _941  and  _942
REMARK  374  A    between atoms: _944  and  _946
REMARK  375  A    between atoms: _946  and  _947
REMARK  376  A    between atoms: _946  and  _949
REMARK  377  A    between atoms: _949  and  _950
REMARK                            x       y       z     vdW  Elec       q    Type
REMARK                         _______ _______ _______ _____ _____    ______ ____
ROOT
ATOM      1  O   HOH     1      28.768  30.332  38.470  0.00  0.00    +0.000 OA
ENDROOT
TORSDOF 0
REMARK  Name = ../refined-set-2016/1xr9/1xr9_pocket.pdb
REMARK  377 active torsions:
REMARK  status: ('A' for Active; 'I' for Inactive)
REMARK    1  A    between atoms: _1  and  _3
REMARK    2  A    between atoms: _3  and  _4
REMARK    3  A    between atoms: _3  and  _6
REMARK    4  A    between atoms: _6  and  _7
REMARK    5  A    between atoms: _7  and  _8
REMARK    6  A    between atoms: _10  and  _12
REMARK    7  A    between atoms: _12  and  _13
REMARK    8  A    between atoms: _12  and  _15
REMARK    9  A    between atoms: _15  and  _16
REMARK   10  A    between atoms: _16  and  _17
REMARK   11  A    between atoms: _17  and  _18
REMARK   12  A    between atoms: _27  and  _29
REMARK   13  A    between atoms: _29  and  _30
REMARK   14  A    between atoms: _29  and  _32
REMARK   15  A    between atoms: _32  and  _33
REMARK   16  A    between atoms: _38  and  _39
REMARK   17  A    between atoms: _41  and  _43
REMARK   18  A    between atoms: _43  and  _44
REMARK   19  A    between atoms: _43  and  _46
REMARK   20  A    between atoms: _46  and  _47
REMARK   21  A    between atoms: _53  and  _55
REMARK   22  A    between atoms: _55  and  _56
REMARK   23  A    between atoms: _55  and  _58
REMARK   24  A    between atoms: _58  and  _59
REMARK   25  A    between atoms: _64  and  _65
REMARK   26  A    between atoms: _67  and  _69
REMARK   27  A    between atoms: _69  and  _70
REMARK   28  A    between atoms: _69  and  _72
REMARK   29  A    between atoms: _72  and  _73
REMARK   30  A    between atoms: _79  and  _81
REMARK   31  A    between atoms: _81  and  _82
REMARK   32  A    between atoms: _85  and  _87
REMARK   33  A    between atoms: _87  and  _88
REMARK   34  A    between atoms: _87  and  _90
REMARK   35  A    between atoms: _93  and  _95
REMARK   36  A    between atoms: _95  and  _96
REMARK   37  A    between atoms: _98  and  _100
REMARK   38  A    between atoms: _100  and  _101
REMARK   39  A    between atoms: _100  and  _103
REMARK   40  A    between atoms: _106  and  _108
REMARK   41  A    between atoms: _108  and  _109
REMARK   42  A    between atoms: _108  and  _111
REMARK   43  A    between atoms: _111  and  _112
REMARK   44  A    between atoms: _118  and  _120
REMARK   45  A    between atoms: _120  and  _121
REMARK   46  A    between atoms: _120  and  _123
REMARK   47  A    between atoms: _126  and  _128
REMARK   48  A    between atoms: _128  and  _129
REMARK   49  A    between atoms: _128  and  _131
REMARK   50  A    between atoms: _131  and  _132
REMARK   51  A    between atoms: _138  and  _140
REMARK   52  A    between atoms: _140  and  _141
REMARK   53  A    between atoms: _140  and  _143
REMARK   54  A    between atoms: _143  and  _144
REMARK   55  A    between atoms: _144  and  _145
REMARK   56  A    between atoms: _147  and  _149
REMARK   57  A    between atoms: _149  and  _150
REMARK   58  A    between atoms: _149  and  _152
REMARK   59  A    between atoms: _152  and  _153
REMARK   60  A    between atoms: _156  and  _158
REMARK   61  A    between atoms: _158  and  _159
REMARK   62  A    between atoms: _158  and  _161
REMARK   63  A    between atoms: _161  and  _162
REMARK   64  A    between atoms: _162  and  _163
REMARK   65  A    between atoms: _166  and  _168
REMARK   66  A    between atoms: _168  and  _169
REMARK   67  A    between atoms: _168  and  _171
REMARK   68  A    between atoms: _171  and  _172
REMARK   69  A    between atoms: _172  and  _173
REMARK   70  A    between atoms: _176  and  _178
REMARK   71  A    between atoms: _178  and  _179
REMARK   72  A    between atoms: _178  and  _181
REMARK   73  A    between atoms: _181  and  _182
REMARK   74  A    between atoms: _187  and  _188
REMARK   75  A    between atoms: _190  and  _192
REMARK   76  A    between atoms: _192  and  _193
REMARK   77  A    between atoms: _192  and  _195
REMARK   78  A    between atoms: _195  and  _196
REMARK   79  A    between atoms: _206  and  _208
REMARK   80  A    between atoms: _208  and  _209
REMARK   81  A    between atoms: _208  and  _211
REMARK   82  A    between atoms: _211  and  _212
REMARK   83  A    between atoms: _215  and  _217
REMARK   84  A    between atoms: _217  and  _218
REMARK   85  A    between atoms: _217  and  _220
REMARK   86  A    between atoms: _220  and  _221
REMARK   87  A    between atoms: _221  and  _222
REMARK   88  A    between atoms: _222  and  _223
REMARK   89  A    between atoms: _232  and  _234
REMARK   90  A    between atoms: _234  and  _235
REMARK   91  A    between atoms: _234  and  _237
REMARK   92  A    between atoms: _237  and  _238
REMARK   93  A    between atoms: _238  and  _239
REMARK   94  A    between atoms: _242  and  _244
REMARK   95  A    between atoms: _244  and  _245
REMARK   96  A    between atoms: _244  and  _247
REMARK   97  A    between atoms: _247  and  _248
REMARK   98  A    between atoms: _251  and  _253
REMARK   99  A    between atoms: _253  and  _254
REMARK  100  A    between atoms: _253  and  _256
REMARK  101  A    between atoms: _256  and  _257
REMARK  102  A    between atoms: _257  and  _258
REMARK  103  A    between atoms: _263  and  _265
REMARK  104  A    between atoms: _265  and  _266
REMARK  105  A    between atoms: _265  and  _268
REMARK  106  A    between atoms: _268  and  _269
REMARK  107  A    between atoms: _272  and  _274
REMARK  108  A    between atoms: _274  and  _275
REMARK  109  A    between atoms: _274  and  _277
REMARK  110  A    between atoms: _277  and  _278
REMARK  111  A    between atoms: _280  and  _282
REMARK  112  A    between atoms: _282  and  _283
REMARK  113  A    between atoms: _282  and  _285
REMARK  114  A    between atoms: _285  and  _286
REMARK  115  A    between atoms: _286  and  _287
REMARK  116  A    between atoms: _287  and  _288
REMARK  117  A    between atoms: _288  and  _289
REMARK  118  A    between atoms: _293  and  _295
REMARK  119  A    between atoms: _295  and  _296
REMARK  120  A    between atoms: _295  and  _298
REMARK  121  A    between atoms: _298  and  _299
REMARK  122  A    between atoms: _302  and  _304
REMARK  123  A    between atoms: _304  and  _305
REMARK  124  A    between atoms: _304  and  _307
REMARK  125  A    between atoms: _307  and  _308
REMARK  126  A    between atoms: _313  and  _315
REMARK  127  A    between atoms: _315  and  _316
REMARK  128  A    between atoms: _315  and  _318
REMARK  129  A    between atoms: _318  and  _319
REMARK  130  A    between atoms: _319  and  _320
REMARK  131  A    between atoms: _325  and  _327
REMARK  132  A    between atoms: _327  and  _328
REMARK  133  A    between atoms: _327  and  _330
REMARK  134  A    between atoms: _330  and  _331
REMARK  135  A    between atoms: _334  and  _336
REMARK  136  A    between atoms: _336  and  _337
REMARK  137  A    between atoms: _336  and  _339
REMARK  138  A    between atoms: _339  and  _340
REMARK  139  A    between atoms: _345  and  _346
REMARK  140  A    between atoms: _348  and  _350
REMARK  141  A    between atoms: _350  and  _351
REMARK  142  A    between atoms: _350  and  _353
REMARK  143  A    between atoms: _353  and  _354
REMARK  144  A    between atoms: _354  and  _355
REMARK  145  A    between atoms: _355  and  _356
REMARK  146  A    between atoms: _365  and  _367
REMARK  147  A    between atoms: _367  and  _368
REMARK  148  A    between atoms: _367  and  _370
REMARK  149  A    between atoms: _370  and  _371
REMARK  150  A    between atoms: _371  and  _372
REMARK  151  A    between atoms: _375  and  _377
REMARK  152  A    between atoms: _377  and  _378
REMARK  153  A    between atoms: _377  and  _380
REMARK  154  A    between atoms: _380  and  _381
REMARK  155  A    between atoms: _383  and  _385
REMARK  156  A    between atoms: _385  and  _386
REMARK  157  A    between atoms: _385  and  _388
REMARK  158  A    between atoms: _388  and  _389
REMARK  159  A    between atoms: _392  and  _394
REMARK  160  A    between atoms: _394  and  _395
REMARK  161  A    between atoms: _394  and  _397
REMARK  162  A    between atoms: _397  and  _398
REMARK  163  A    between atoms: _398  and  _399
REMARK  164  A    between atoms: _399  and  _400
REMARK  165  A    between atoms: _409  and  _411
REMARK  166  A    between atoms: _411  and  _412
REMARK  167  A    between atoms: _411  and  _414
REMARK  168  A    between atoms: _414  and  _415
REMARK  169  A    between atoms: _420  and  _422
REMARK  170  A    between atoms: _422  and  _423
REMARK  171  A    between atoms: _422  and  _425
REMARK  172  A    between atoms: _425  and  _426
REMARK  173  A    between atoms: _429  and  _431
REMARK  174  A    between atoms: _431  and  _432
REMARK  175  A    between atoms: _431  and  _434
REMARK  176  A    between atoms: _434  and  _435
REMARK  177  A    between atoms: _440  and  _441
REMARK  178  A    between atoms: _443  and  _445
REMARK  179  A    between atoms: _445  and  _446
REMARK  180  A    between atoms: _445  and  _448
REMARK  181  A    between atoms: _448  and  _449
REMARK  182  A    between atoms: _452  and  _454
REMARK  183  A    between atoms: _454  and  _455
REMARK  184  A    between atoms: _454  and  _457
REMARK  185  A    between atoms: _457  and  _458
REMARK  186  A    between atoms: _458  and  _459
REMARK  187  A    between atoms: _464  and  _466
REMARK  188  A    between atoms: _466  and  _467
REMARK  189  A    between atoms: _466  and  _469
REMARK  190  A    between atoms: _469  and  _470
REMARK  191  A    between atoms: _470  and  _471
REMARK  192  A    between atoms: _471  and  _472
REMARK  193  A    between atoms: _481  and  _483
REMARK  194  A    between atoms: _483  and  _484
REMARK  195  A    between atoms: _483  and  _486
REMARK  196  A    between atoms: _486  and  _487
REMARK  197  A    between atoms: _487  and  _488
REMARK  198  A    between atoms: _490  and  _492
REMARK  199  A    between atoms: _492  and  _493
REMARK  200  A    between atoms: _492  and  _495
REMARK  201  A    between atoms: _495  and  _496
REMARK  202  A    between atoms: _501  and  _502
REMARK  203  A    between atoms: _504  and  _506
REMARK  204  A    between atoms: _506  and  _507
REMARK  205  A    between atoms: _509  and  _511
REMARK  206  A    between atoms: _511  and  _512
REMARK  207  A    between atoms: _511  and  _514
REMARK  208  A    between atoms: _514  and  _515
REMARK  209  A    between atoms: _515  and  _869
REMARK  210  A    between atoms: _516  and  _518
REMARK  211  A    between atoms: _518  and  _519
REMARK  212  A    between atoms: _518  and  _521
REMARK  213  A    between atoms: _521  and  _522
REMARK  214  A    between atoms: _525  and  _527
REMARK  215  A    between atoms: _527  and  _528
REMARK  216  A    between atoms: _527  and  _530
REMARK  217  A    between atoms: _530  and  _531
REMARK  218  A    between atoms: _531  and  _532
REMARK  219  A    between atoms: _537  and  _539
REMARK  220  A    between atoms: _539  and  _540
REMARK  221  A    between atoms: _539  and  _542
REMARK  222  A    between atoms: _542  and  _543
REMARK  223  A    between atoms: _545  and  _547
REMARK  224  A    between atoms: _547  and  _548
REMARK  225  A    between atoms: _551  and  _553
REMARK  226  A    between atoms: _553  and  _554
REMARK  227  A    between atoms: _553  and  _556
REMARK  228  A    between atoms: _556  and  _557
REMARK  229  A    between atoms: _562  and  _563
REMARK  230  A    between atoms: _565  and  _567
REMARK  231  A    between atoms: _567  and  _568
REMARK  232  A    between atoms: _567  and  _570
REMARK  233  A    between atoms: _570  and  _571
REMARK  234  A    between atoms: _576  and  _577
REMARK  235  A    between atoms: _579  and  _581
REMARK  236  A    between atoms: _581  and  _582
REMARK  237  A    between atoms: _581  and  _584
REMARK  238  A    between atoms: _584  and  _585
REMARK  239  A    between atoms: _588  and  _590
REMARK  240  A    between atoms: _590  and  _591
REMARK  241  A    between atoms: _594  and  _596
REMARK  242  A    between atoms: _596  and  _597
REMARK  243  A    between atoms: _596  and  _599
REMARK  244  A    between atoms: _599  and  _600
REMARK  245  A    between atoms: _610  and  _612
REMARK  246  A    between atoms: _612  and  _613
REMARK  247  A    between atoms: _616  and  _618
REMARK  248  A    between atoms: _618  and  _619
REMARK  249  A    between atoms: _622  and  _624
REMARK  250  A    between atoms: _624  and  _625
REMARK  251  A    between atoms: _624  and  _627
REMARK  252  A    between atoms: _627  and  _628
REMARK  253  A    between atoms: _628  and  _629
REMARK  254  A    between atoms: _634  and  _636
REMARK  255  A    between atoms: _636  and  _637
REMARK  256  A    between atoms: _636  and  _639
REMARK  257  A    between atoms: _639  and  _640
REMARK  258  A    between atoms: _643  and  _645
REMARK  259  A    between atoms: _645  and  _646
REMARK  260  A    between atoms: _645  and  _648
REMARK  261  A    between atoms: _648  and  _649
REMARK  262  A    between atoms: _652  and  _654
REMARK  263  A    between atoms: _654  and  _655
REMARK  264  A    between atoms: _654  and  _657
REMARK  265  A    between atoms: _657  and  _658
REMARK  266  A    between atoms: _658  and  _659
REMARK  267  A    between atoms: _664  and  _666
REMARK  268  A    between atoms: _666  and  _667
REMARK  269  A    between atoms: _666  and  _669
REMARK  270  A    between atoms: _669  and  _670
REMARK  271  A    between atoms: _670  and  _671
REMARK  272  A    between atoms: _671  and  _672
REMARK  273  A    between atoms: _681  and  _683
REMARK  274  A    between atoms: _683  and  _684
REMARK  275  A    between atoms: _683  and  _686
REMARK  276  A    between atoms: _686  and  _687
REMARK  277  A    between atoms: _687  and  _688
REMARK  278  A    between atoms: _688  and  _689
REMARK  279  A    between atoms: _689  and  _690
REMARK  280  A    between atoms: _694  and  _696
REMARK  281  A    between atoms: _696  and  _697
REMARK  282  A    between atoms: _696  and  _699
REMARK  283  A    between atoms: _699  and  _700
REMARK  284  A    between atoms: _710  and  _712
REMARK  285  A    between atoms: _712  and  _713
REMARK  286  A    between atoms: _712  and  _715
REMARK  287  A    between atoms: _715  and  _716
REMARK  288  A    between atoms: _716  and  _717
REMARK  289  A    between atoms: _720  and  _722
REMARK  290  A    between atoms: _722  and  _723
REMARK  291  A    between atoms: _726  and  _728
REMARK  292  A    between atoms: _728  and  _729
REMARK  293  A    between atoms: _732  and  _734
REMARK  294  A    between atoms: _734  and  _735
REMARK  295  A    between atoms: _734  and  _737
REMARK  296  A    between atoms: _737  and  _738
REMARK  297  A    between atoms: _738  and  _739
REMARK  298  A    between atoms: _739  and  _740
REMARK  299  A    between atoms: _749  and  _751
REMARK  300  A    between atoms: _751  and  _752
REMARK  301  A    between atoms: _751  and  _754
REMARK  302  A    between atoms: _754  and  _755
REMARK  303  A    between atoms: _755  and  _756
REMARK  304  A    between atoms: _759  and  _761
REMARK  305  A    between atoms: _761  and  _762
REMARK  306  A    between atoms: _765  and  _767
REMARK  307  A    between atoms: _767  and  _768
REMARK  308  A    between atoms: _767  and  _770
REMARK  309  A    between atoms: _770  and  _771
REMARK  310  A    between atoms: _771  and  _772
REMARK  311  A    between atoms: _775  and  _777
REMARK  312  A    between atoms: _777  and  _778
REMARK  313  A    between atoms: _777  and  _780
REMARK  314  A    between atoms: _780  and  _781
REMARK  315  A    between atoms: _781  and  _782
REMARK  316  A    between atoms: _787  and  _789
REMARK  317  A    between atoms: _789  and  _790
REMARK  318  A    between atoms: _789  and  _792
REMARK  319  A    between atoms: _792  and  _793
REMARK  320  A    between atoms: _803  and  _805
REMARK  321  A    between atoms: _805  and  _806
REMARK  322  A    between atoms: _805  and  _808
REMARK  323  A    between atoms: _808  and  _809
REMARK  324  A    between atoms: _809  and  _810
REMARK  325  A    between atoms: _810  and  _811
REMARK  326  A    between atoms: _820  and  _822
REMARK  327  A    between atoms: _822  and  _823
REMARK  328  A    between atoms: _826  and  _828
REMARK  329  A    between atoms: _828  and  _829
REMARK  330  A    between atoms: _828  and  _831
REMARK  331  A    between atoms: _831  and  _832
REMARK  332  A    between atoms: _837  and  _838
REMARK  333  A    between atoms: _840  and  _842
REMARK  334  A    between atoms: _842  and  _843
REMARK  335  A    between atoms: _842  and  _845
REMARK  336  A    between atoms: _845  and  _846
REMARK  337  A    between atoms: _849  and  _851
REMARK  338  A    between atoms: _851  and  _852
REMARK  339  A    between atoms: _854  and  _856
REMARK  340  A    between atoms: _856  and  _857
REMARK  341  A    between atoms: _856  and  _859
REMARK  342  A    between atoms: _859  and  _860
REMARK  343  A    between atoms: _863  and  _865
REMARK  344  A    between atoms: _865  and  _866
REMARK  345  A    between atoms: _865  and  _868
REMARK  346  A    between atoms: _868  and  _869
REMARK  347  A    between atoms: _870  and  _872
REMARK  348  A    between atoms: _872  and  _873
REMARK  349  A    between atoms: _872  and  _875
REMARK  350  A    between atoms: _878  and  _880
REMARK  351  A    between atoms: _880  and  _881
REMARK  352  A    between atoms: _880  and  _883
REMARK  353  A    between atoms: _883  and  _884
REMARK  354  A    between atoms: _884  and  _885
REMARK  355  A    between atoms: _888  and  _890
REMARK  356  A    between atoms: _890  and  _891
REMARK  357  A    between atoms: _890  and  _893
REMARK  358  A    between atoms: _893  and  _894
REMARK  359  A    between atoms: _904  and  _906
REMARK  360  A    between atoms: _906  and  _907
REMARK  361  A    between atoms: _906  and  _909
REMARK  362  A    between atoms: _909  and  _910
REMARK  363  A    between atoms: _913  and  _915
REMARK  364  A    between atoms: _915  and  _916
REMARK  365  A    between atoms: _915  and  _918
REMARK  366  A    between atoms: _918  and  _919
REMARK  367  A    between atoms: _919  and  _920
REMARK  368  A    between atoms: _920  and  _921
REMARK  369  A    between atoms: _930  and  _932
REMARK  370  A    between atoms: _932  and  _933
REMARK  371  A    between atoms: _932  and  _935
REMARK  372  A    between atoms: _935  and  _936
REMARK  373  A    between atoms: _941  and  _942
REMARK  374  A    between atoms: _944  and  _946
REMARK  375  A    between atoms: _946  and  _947
REMARK  376  A    between atoms: _946  and  _949
REMARK  377  A    between atoms: _949  and  _950
REMARK                            x       y       z     vdW  Elec       q    Type
REMARK                         _______ _______ _______ _____ _____    ______ ____
ROOT
ATOM      1  O   HOH     1      24.309  27.454  34.610  0.00  0.00    +0.000 OA
ENDROOT
TORSDOF 0
REMARK  Name = ../refined-set-2016/1xr9/1xr9_pocket.pdb
REMARK  377 active torsions:
REMARK  status: ('A' for Active; 'I' for Inactive)
REMARK    1  A    between atoms: _1  and  _3
REMARK    2  A    between atoms: _3  and  _4
REMARK    3  A    between atoms: _3  and  _6
REMARK    4  A    between atoms: _6  and  _7
REMARK    5  A    between atoms: _7  and  _8
REMARK    6  A    between atoms: _10  and  _12
REMARK    7  A    between atoms: _12  and  _13
REMARK    8  A    between atoms: _12  and  _15
REMARK    9  A    between atoms: _15  and  _16
REMARK   10  A    between atoms: _16  and  _17
REMARK   11  A    between atoms: _17  and  _18
REMARK   12  A    between atoms: _27  and  _29
REMARK   13  A    between atoms: _29  and  _30
REMARK   14  A    between atoms: _29  and  _32
REMARK   15  A    between atoms: _32  and  _33
REMARK   16  A    between atoms: _38  and  _39
REMARK   17  A    between atoms: _41  and  _43
REMARK   18  A    between atoms: _43  and  _44
REMARK   19  A    between atoms: _43  and  _46
REMARK   20  A    between atoms: _46  and  _47
REMARK   21  A    between atoms: _53  and  _55
REMARK   22  A    between atoms: _55  and  _56
REMARK   23  A    between atoms: _55  and  _58
REMARK   24  A    between atoms: _58  and  _59
REMARK   25  A    between atoms: _64  and  _65
REMARK   26  A    between atoms: _67  and  _69
REMARK   27  A    between atoms: _69  and  _70
REMARK   28  A    between atoms: _69  and  _72
REMARK   29  A    between atoms: _72  and  _73
REMARK   30  A    between atoms: _79  and  _81
REMARK   31  A    between atoms: _81  and  _82
REMARK   32  A    between atoms: _85  and  _87
REMARK   33  A    between atoms: _87  and  _88
REMARK   34  A    between atoms: _87  and  _90
REMARK   35  A    between atoms: _93  and  _95
REMARK   36  A    between atoms: _95  and  _96
REMARK   37  A    between atoms: _98  and  _100
REMARK   38  A    between atoms: _100  and  _101
REMARK   39  A    between atoms: _100  and  _103
REMARK   40  A    between atoms: _106  and  _108
REMARK   41  A    between atoms: _108  and  _109
REMARK   42  A    between atoms: _108  and  _111
REMARK   43  A    between atoms: _111  and  _112
REMARK   44  A    between atoms: _118  and  _120
REMARK   45  A    between atoms: _120  and  _121
REMARK   46  A    between atoms: _120  and  _123
REMARK   47  A    between atoms: _126  and  _128
REMARK   48  A    between atoms: _128  and  _129
REMARK   49  A    between atoms: _128  and  _131
REMARK   50  A    between atoms: _131  and  _132
REMARK   51  A    between atoms: _138  and  _140
REMARK   52  A    between atoms: _140  and  _141
REMARK   53  A    between atoms: _140  and  _143
REMARK   54  A    between atoms: _143  and  _144
REMARK   55  A    between atoms: _144  and  _145
REMARK   56  A    between atoms: _147  and  _149
REMARK   57  A    between atoms: _149  and  _150
REMARK   58  A    between atoms: _149  and  _152
REMARK   59  A    between atoms: _152  and  _153
REMARK   60  A    between atoms: _156  and  _158
REMARK   61  A    between atoms: _158  and  _159
REMARK   62  A    between atoms: _158  and  _161
REMARK   63  A    between atoms: _161  and  _162
REMARK   64  A    between atoms: _162  and  _163
REMARK   65  A    between atoms: _166  and  _168
REMARK   66  A    between atoms: _168  and  _169
REMARK   67  A    between atoms: _168  and  _171
REMARK   68  A    between atoms: _171  and  _172
REMARK   69  A    between atoms: _172  and  _173
REMARK   70  A    between atoms: _176  and  _178
REMARK   71  A    between atoms: _178  and  _179
REMARK   72  A    between atoms: _178  and  _181
REMARK   73  A    between atoms: _181  and  _182
REMARK   74  A    between atoms: _187  and  _188
REMARK   75  A    between atoms: _190  and  _192
REMARK   76  A    between atoms: _192  and  _193
REMARK   77  A    between atoms: _192  and  _195
REMARK   78  A    between atoms: _195  and  _196
REMARK   79  A    between atoms: _206  and  _208
REMARK   80  A    between atoms: _208  and  _209
REMARK   81  A    between atoms: _208  and  _211
REMARK   82  A    between atoms: _211  and  _212
REMARK   83  A    between atoms: _215  and  _217
REMARK   84  A    between atoms: _217  and  _218
REMARK   85  A    between atoms: _217  and  _220
REMARK   86  A    between atoms: _220  and  _221
REMARK   87  A    between atoms: _221  and  _222
REMARK   88  A    between atoms: _222  and  _223
REMARK   89  A    between atoms: _232  and  _234
REMARK   90  A    between atoms: _234  and  _235
REMARK   91  A    between atoms: _234  and  _237
REMARK   92  A    between atoms: _237  and  _238
REMARK   93  A    between atoms: _238  and  _239
REMARK   94  A    between atoms: _242  and  _244
REMARK   95  A    between atoms: _244  and  _245
REMARK   96  A    between atoms: _244  and  _247
REMARK   97  A    between atoms: _247  and  _248
REMARK   98  A    between atoms: _251  and  _253
REMARK   99  A    between atoms: _253  and  _254
REMARK  100  A    between atoms: _253  and  _256
REMARK  101  A    between atoms: _256  and  _257
REMARK  102  A    between atoms: _257  and  _258
REMARK  103  A    between atoms: _263  and  _265
REMARK  104  A    between atoms: _265  and  _266
REMARK  105  A    between atoms: _265  and  _268
REMARK  106  A    between atoms: _268  and  _269
REMARK  107  A    between atoms: _272  and  _274
REMARK  108  A    between atoms: _274  and  _275
REMARK  109  A    between atoms: _274  and  _277
REMARK  110  A    between atoms: _277  and  _278
REMARK  111  A    between atoms: _280  and  _282
REMARK  112  A    between atoms: _282  and  _283
REMARK  113  A    between atoms: _282  and  _285
REMARK  114  A    between atoms: _285  and  _286
REMARK  115  A    between atoms: _286  and  _287
REMARK  116  A    between atoms: _287  and  _288
REMARK  117  A    between atoms: _288  and  _289
REMARK  118  A    between atoms: _293  and  _295
REMARK  119  A    between atoms: _295  and  _296
REMARK  120  A    between atoms: _295  and  _298
REMARK  121  A    between atoms: _298  and  _299
REMARK  122  A    between atoms: _302  and  _304
REMARK  123  A    between atoms: _304  and  _305
REMARK  124  A    between atoms: _304  and  _307
REMARK  125  A    between atoms: _307  and  _308
REMARK  126  A    between atoms: _313  and  _315
REMARK  127  A    between atoms: _315  and  _316
REMARK  128  A    between atoms: _315  and  _318
REMARK  129  A    between atoms: _318  and  _319
REMARK  130  A    between atoms: _319  and  _320
REMARK  131  A    between atoms: _325  and  _327
REMARK  132  A    between atoms: _327  and  _328
REMARK  133  A    between atoms: _327  and  _330
REMARK  134  A    between atoms: _330  and  _331
REMARK  135  A    between atoms: _334  and  _336
REMARK  136  A    between atoms: _336  and  _337
REMARK  137  A    between atoms: _336  and  _339
REMARK  138  A    between atoms: _339  and  _340
REMARK  139  A    between atoms: _345  and  _346
REMARK  140  A    between atoms: _348  and  _350
REMARK  141  A    between atoms: _350  and  _351
REMARK  142  A    between atoms: _350  and  _353
REMARK  143  A    between atoms: _353  and  _354
REMARK  144  A    between atoms: _354  and  _355
REMARK  145  A    between atoms: _355  and  _356
REMARK  146  A    between atoms: _365  and  _367
REMARK  147  A    between atoms: _367  and  _368
REMARK  148  A    between atoms: _367  and  _370
REMARK  149  A    between atoms: _370  and  _371
REMARK  150  A    between atoms: _371  and  _372
REMARK  151  A    between atoms: _375  and  _377
REMARK  152  A    between atoms: _377  and  _378
REMARK  153  A    between atoms: _377  and  _380
REMARK  154  A    between atoms: _380  and  _381
REMARK  155  A    between atoms: _383  and  _385
REMARK  156  A    between atoms: _385  and  _386
REMARK  157  A    between atoms: _385  and  _388
REMARK  158  A    between atoms: _388  and  _389
REMARK  159  A    between atoms: _392  and  _394
REMARK  160  A    between atoms: _394  and  _395
REMARK  161  A    between atoms: _394  and  _397
REMARK  162  A    between atoms: _397  and  _398
REMARK  163  A    between atoms: _398  and  _399
REMARK  164  A    between atoms: _399  and  _400
REMARK  165  A    between atoms: _409  and  _411
REMARK  166  A    between atoms: _411  and  _412
REMARK  167  A    between atoms: _411  and  _414
REMARK  168  A    between atoms: _414  and  _415
REMARK  169  A    between atoms: _420  and  _422
REMARK  170  A    between atoms: _422  and  _423
REMARK  171  A    between atoms: _422  and  _425
REMARK  172  A    between atoms: _425  and  _426
REMARK  173  A    between atoms: _429  and  _431
REMARK  174  A    between atoms: _431  and  _432
REMARK  175  A    between atoms: _431  and  _434
REMARK  176  A    between atoms: _434  and  _435
REMARK  177  A    between atoms: _440  and  _441
REMARK  178  A    between atoms: _443  and  _445
REMARK  179  A    between atoms: _445  and  _446
REMARK  180  A    between atoms: _445  and  _448
REMARK  181  A    between atoms: _448  and  _449
REMARK  182  A    between atoms: _452  and  _454
REMARK  183  A    between atoms: _454  and  _455
REMARK  184  A    between atoms: _454  and  _457
REMARK  185  A    between atoms: _457  and  _458
REMARK  186  A    between atoms: _458  and  _459
REMARK  187  A    between atoms: _464  and  _466
REMARK  188  A    between atoms: _466  and  _467
REMARK  189  A    between atoms: _466  and  _469
REMARK  190  A    between atoms: _469  and  _470
REMARK  191  A    between atoms: _470  and  _471
REMARK  192  A    between atoms: _471  and  _472
REMARK  193  A    between atoms: _481  and  _483
REMARK  194  A    between atoms: _483  and  _484
REMARK  195  A    between atoms: _483  and  _486
REMARK  196  A    between atoms: _486  and  _487
REMARK  197  A    between atoms: _487  and  _488
REMARK  198  A    between atoms: _490  and  _492
REMARK  199  A    between atoms: _492  and  _493
REMARK  200  A    between atoms: _492  and  _495
REMARK  201  A    between atoms: _495  and  _496
REMARK  202  A    between atoms: _501  and  _502
REMARK  203  A    between atoms: _504  and  _506
REMARK  204  A    between atoms: _506  and  _507
REMARK  205  A    between atoms: _509  and  _511
REMARK  206  A    between atoms: _511  and  _512
REMARK  207  A    between atoms: _511  and  _514
REMARK  208  A    between atoms: _514  and  _515
REMARK  209  A    between atoms: _515  and  _869
REMARK  210  A    between atoms: _516  and  _518
REMARK  211  A    between atoms: _518  and  _519
REMARK  212  A    between atoms: _518  and  _521
REMARK  213  A    between atoms: _521  and  _522
REMARK  214  A    between atoms: _525  and  _527
REMARK  215  A    between atoms: _527  and  _528
REMARK  216  A    between atoms: _527  and  _530
REMARK  217  A    between atoms: _530  and  _531
REMARK  218  A    between atoms: _531  and  _532
REMARK  219  A    between atoms: _537  and  _539
REMARK  220  A    between atoms: _539  and  _540
REMARK  221  A    between atoms: _539  and  _542
REMARK  222  A    between atoms: _542  and  _543
REMARK  223  A    between atoms: _545  and  _547
REMARK  224  A    between atoms: _547  and  _548
REMARK  225  A    between atoms: _551  and  _553
REMARK  226  A    between atoms: _553  and  _554
REMARK  227  A    between atoms: _553  and  _556
REMARK  228  A    between atoms: _556  and  _557
REMARK  229  A    between atoms: _562  and  _563
REMARK  230  A    between atoms: _565  and  _567
REMARK  231  A    between atoms: _567  and  _568
REMARK  232  A    between atoms: _567  and  _570
REMARK  233  A    between atoms: _570  and  _571
REMARK  234  A    between atoms: _576  and  _577
REMARK  235  A    between atoms: _579  and  _581
REMARK  236  A    between atoms: _581  and  _582
REMARK  237  A    between atoms: _581  and  _584
REMARK  238  A    between atoms: _584  and  _585
REMARK  239  A    between atoms: _588  and  _590
REMARK  240  A    between atoms: _590  and  _591
REMARK  241  A    between atoms: _594  and  _596
REMARK  242  A    between atoms: _596  and  _597
REMARK  243  A    between atoms: _596  and  _599
REMARK  244  A    between atoms: _599  and  _600
REMARK  245  A    between atoms: _610  and  _612
REMARK  246  A    between atoms: _612  and  _613
REMARK  247  A    between atoms: _616  and  _618
REMARK  248  A    between atoms: _618  and  _619
REMARK  249  A    between atoms: _622  and  _624
REMARK  250  A    between atoms: _624  and  _625
REMARK  251  A    between atoms: _624  and  _627
REMARK  252  A    between atoms: _627  and  _628
REMARK  253  A    between atoms: _628  and  _629
REMARK  254  A    between atoms: _634  and  _636
REMARK  255  A    between atoms: _636  and  _637
REMARK  256  A    between atoms: _636  and  _639
REMARK  257  A    between atoms: _639  and  _640
REMARK  258  A    between atoms: _643  and  _645
REMARK  259  A    between atoms: _645  and  _646
REMARK  260  A    between atoms: _645  and  _648
REMARK  261  A    between atoms: _648  and  _649
REMARK  262  A    between atoms: _652  and  _654
REMARK  263  A    between atoms: _654  and  _655
REMARK  264  A    between atoms: _654  and  _657
REMARK  265  A    between atoms: _657  and  _658
REMARK  266  A    between atoms: _658  and  _659
REMARK  267  A    between atoms: _664  and  _666
REMARK  268  A    between atoms: _666  and  _667
REMARK  269  A    between atoms: _666  and  _669
REMARK  270  A    between atoms: _669  and  _670
REMARK  271  A    between atoms: _670  and  _671
REMARK  272  A    between atoms: _671  and  _672
REMARK  273  A    between atoms: _681  and  _683
REMARK  274  A    between atoms: _683  and  _684
REMARK  275  A    between atoms: _683  and  _686
REMARK  276  A    between atoms: _686  and  _687
REMARK  277  A    between atoms: _687  and  _688
REMARK  278  A    between atoms: _688  and  _689
REMARK  279  A    between atoms: _689  and  _690
REMARK  280  A    between atoms: _694  and  _696
REMARK  281  A    between atoms: _696  and  _697
REMARK  282  A    between atoms: _696  and  _699
REMARK  283  A    between atoms: _699  and  _700
REMARK  284  A    between atoms: _710  and  _712
REMARK  285  A    between atoms: _712  and  _713
REMARK  286  A    between atoms: _712  and  _715
REMARK  287  A    between atoms: _715  and  _716
REMARK  288  A    between atoms: _716  and  _717
REMARK  289  A    between atoms: _720  and  _722
REMARK  290  A    between atoms: _722  and  _723
REMARK  291  A    between atoms: _726  and  _728
REMARK  292  A    between atoms: _728  and  _729
REMARK  293  A    between atoms: _732  and  _734
REMARK  294  A    between atoms: _734  and  _735
REMARK  295  A    between atoms: _734  and  _737
REMARK  296  A    between atoms: _737  and  _738
REMARK  297  A    between atoms: _738  and  _739
REMARK  298  A    between atoms: _739  and  _740
REMARK  299  A    between atoms: _749  and  _751
REMARK  300  A    between atoms: _751  and  _752
REMARK  301  A    between atoms: _751  and  _754
REMARK  302  A    between atoms: _754  and  _755
REMARK  303  A    between atoms: _755  and  _756
REMARK  304  A    between atoms: _759  and  _761
REMARK  305  A    between atoms: _761  and  _762
REMARK  306  A    between atoms: _765  and  _767
REMARK  307  A    between atoms: _767  and  _768
REMARK  308  A    between atoms: _767  and  _770
REMARK  309  A    between atoms: _770  and  _771
REMARK  310  A    between atoms: _771  and  _772
REMARK  311  A    between atoms: _775  and  _777
REMARK  312  A    between atoms: _777  and  _778
REMARK  313  A    between atoms: _777  and  _780
REMARK  314  A    between atoms: _780  and  _781
REMARK  315  A    between atoms: _781  and  _782
REMARK  316  A    between atoms: _787  and  _789
REMARK  317  A    between atoms: _789  and  _790
REMARK  318  A    between atoms: _789  and  _792
REMARK  319  A    between atoms: _792  and  _793
REMARK  320  A    between atoms: _803  and  _805
REMARK  321  A    between atoms: _805  and  _806
REMARK  322  A    between atoms: _805  and  _808
REMARK  323  A    between atoms: _808  and  _809
REMARK  324  A    between atoms: _809  and  _810
REMARK  325  A    between atoms: _810  and  _811
REMARK  326  A    between atoms: _820  and  _822
REMARK  327  A    between atoms: _822  and  _823
REMARK  328  A    between atoms: _826  and  _828
REMARK  329  A    between atoms: _828  and  _829
REMARK  330  A    between atoms: _828  and  _831
REMARK  331  A    between atoms: _831  and  _832
REMARK  332  A    between atoms: _837  and  _838
REMARK  333  A    between atoms: _840  and  _842
REMARK  334  A    between atoms: _842  and  _843
REMARK  335  A    between atoms: _842  and  _845
REMARK  336  A    between atoms: _845  and  _846
REMARK  337  A    between atoms: _849  and  _851
REMARK  338  A    between atoms: _851  and  _852
REMARK  339  A    between atoms: _854  and  _856
REMARK  340  A    between atoms: _856  and  _857
REMARK  341  A    between atoms: _856  and  _859
REMARK  342  A    between atoms: _859  and  _860
REMARK  343  A    between atoms: _863  and  _865
REMARK  344  A    between atoms: _865  and  _866
REMARK  345  A    between atoms: _865  and  _868
REMARK  346  A    between atoms: _868  and  _869
REMARK  347  A    between atoms: _870  and  _872
REMARK  348  A    between atoms: _872  and  _873
REMARK  349  A    between atoms: _872  and  _875
REMARK  350  A    between atoms: _878  and  _880
REMARK  351  A    between atoms: _880  and  _881
REMARK  352  A    between atoms: _880  and  _883
REMARK  353  A    between atoms: _883  and  _884
REMARK  354  A    between atoms: _884  and  _885
REMARK  355  A    between atoms: _888  and  _890
REMARK  356  A    between atoms: _890  and  _891
REMARK  357  A    between atoms: _890  and  _893
REMARK  358  A    between atoms: _893  and  _894
REMARK  359  A    between atoms: _904  and  _906
REMARK  360  A    between atoms: _906  and  _907
REMARK  361  A    between atoms: _906  and  _909
REMARK  362  A    between atoms: _909  and  _910
REMARK  363  A    between atoms: _913  and  _915
REMARK  364  A    between atoms: _915  and  _916
REMARK  365  A    between atoms: _915  and  _918
REMARK  366  A    between atoms: _918  and  _919
REMARK  367  A    between atoms: _919  and  _920
REMARK  368  A    between atoms: _920  and  _921
REMARK  369  A    between atoms: _930  and  _932
REMARK  370  A    between atoms: _932  and  _933
REMARK  371  A    between atoms: _932  and  _935
REMARK  372  A    between atoms: _935  and  _936
REMARK  373  A    between atoms: _941  and  _942
REMARK  374  A    between atoms: _944  and  _946
REMARK  375  A    between atoms: _946  and  _947
REMARK  376  A    between atoms: _946  and  _949
REMARK  377  A    between atoms: _949  and  _950
REMARK                            x       y       z     vdW  Elec       q    Type
REMARK                         _______ _______ _______ _____ _____    ______ ____
ROOT
ATOM      1  O   HOH     1      26.589  30.334  43.145  0.00  0.00    +0.000 OA
ENDROOT
TORSDOF 0
