REMARK  Name = ../refined-set-2016/2wm0/2wm0_pocket.pdb
REMARK  252 active torsions:
REMARK  status: ('A' for Active; 'I' for Inactive)
REMARK    1  A    between atoms: _1  and  _3
REMARK    2  A    between atoms: _3  and  _4
REMARK    3  A    between atoms: _3  and  _6
REMARK    4  A    between atoms: _6  and  _7
REMARK    5  A    between atoms: _12  and  _13
REMARK    6  A    between atoms: _15  and  _17
REMARK    7  A    between atoms: _17  and  _18
REMARK    8  A    between atoms: _17  and  _20
REMARK    9  A    between atoms: _23  and  _25
REMARK   10  A    between atoms: _25  and  _26
REMARK   11  A    between atoms: _25  and  _28
REMARK   12  A    between atoms: _28  and  _29
REMARK   13  A    between atoms: _29  and  _30
REMARK   14  A    between atoms: _33  and  _35
REMARK   15  A    between atoms: _35  and  _36
REMARK   16  A    between atoms: _35  and  _38
REMARK   17  A    between atoms: _38  and  _39
REMARK   18  A    between atoms: _49  and  _51
REMARK   19  A    between atoms: _51  and  _52
REMARK   20  A    between atoms: _54  and  _56
REMARK   21  A    between atoms: _56  and  _57
REMARK   22  A    between atoms: _56  and  _59
REMARK   23  A    between atoms: _59  and  _60
REMARK   24  A    between atoms: _65  and  _66
REMARK   25  A    between atoms: _68  and  _70
REMARK   26  A    between atoms: _70  and  _71
REMARK   27  A    between atoms: _73  and  _75
REMARK   28  A    between atoms: _75  and  _76
REMARK   29  A    between atoms: _75  and  _78
REMARK   30  A    between atoms: _78  and  _79
REMARK   31  A    between atoms: _79  and  _80
REMARK   32  A    between atoms: _80  and  _81
REMARK   33  A    between atoms: _90  and  _92
REMARK   34  A    between atoms: _92  and  _93
REMARK   35  A    between atoms: _92  and  _95
REMARK   36  A    between atoms: _95  and  _96
REMARK   37  A    between atoms: _99  and  _101
REMARK   38  A    between atoms: _101  and  _102
REMARK   39  A    between atoms: _104  and  _106
REMARK   40  A    between atoms: _106  and  _107
REMARK   41  A    between atoms: _106  and  _109
REMARK   42  A    between atoms: _109  and  _110
REMARK   43  A    between atoms: _116  and  _118
REMARK   44  A    between atoms: _118  and  _119
REMARK   45  A    between atoms: _118  and  _121
REMARK   46  A    between atoms: _121  and  _122
REMARK   47  A    between atoms: _126  and  _127
REMARK   48  A    between atoms: _132  and  _134
REMARK   49  A    between atoms: _134  and  _135
REMARK   50  A    between atoms: _134  and  _137
REMARK   51  A    between atoms: _137  and  _138
REMARK   52  A    between atoms: _140  and  _142
REMARK   53  A    between atoms: _142  and  _143
REMARK   54  A    between atoms: _142  and  _145
REMARK   55  A    between atoms: _145  and  _146
REMARK   56  A    between atoms: _149  and  _151
REMARK   57  A    between atoms: _151  and  _152
REMARK   58  A    between atoms: _151  and  _154
REMARK   59  A    between atoms: _154  and  _155
REMARK   60  A    between atoms: _155  and  _156
REMARK   61  A    between atoms: _159  and  _161
REMARK   62  A    between atoms: _161  and  _162
REMARK   63  A    between atoms: _161  and  _164
REMARK   64  A    between atoms: _164  and  _165
REMARK   65  A    between atoms: _168  and  _170
REMARK   66  A    between atoms: _170  and  _171
REMARK   67  A    between atoms: _170  and  _173
REMARK   68  A    between atoms: _173  and  _174
REMARK   69  A    between atoms: _174  and  _175
REMARK   70  A    between atoms: _178  and  _180
REMARK   71  A    between atoms: _180  and  _181
REMARK   72  A    between atoms: _183  and  _185
REMARK   73  A    between atoms: _185  and  _186
REMARK   74  A    between atoms: _185  and  _188
REMARK   75  A    between atoms: _188  and  _189
REMARK   76  A    between atoms: _191  and  _193
REMARK   77  A    between atoms: _193  and  _194
REMARK   78  A    between atoms: _193  and  _196
REMARK   79  A    between atoms: _196  and  _197
REMARK   80  A    between atoms: _203  and  _205
REMARK   81  A    between atoms: _205  and  _206
REMARK   82  A    between atoms: _205  and  _208
REMARK   83  A    between atoms: _208  and  _209
REMARK   84  A    between atoms: _214  and  _216
REMARK   85  A    between atoms: _216  and  _217
REMARK   86  A    between atoms: _216  and  _219
REMARK   87  A    between atoms: _219  and  _220
REMARK   88  A    between atoms: _223  and  _225
REMARK   89  A    between atoms: _225  and  _226
REMARK   90  A    between atoms: _225  and  _228
REMARK   91  A    between atoms: _228  and  _229
REMARK   92  A    between atoms: _231  and  _233
REMARK   93  A    between atoms: _233  and  _234
REMARK   94  A    between atoms: _233  and  _236
REMARK   95  A    between atoms: _236  and  _237
REMARK   96  A    between atoms: _240  and  _242
REMARK   97  A    between atoms: _242  and  _243
REMARK   98  A    between atoms: _245  and  _247
REMARK   99  A    between atoms: _247  and  _248
REMARK  100  A    between atoms: _250  and  _252
REMARK  101  A    between atoms: _252  and  _253
REMARK  102  A    between atoms: _252  and  _255
REMARK  103  A    between atoms: _255  and  _256
REMARK  104  A    between atoms: _266  and  _268
REMARK  105  A    between atoms: _268  and  _269
REMARK  106  A    between atoms: _268  and  _271
REMARK  107  A    between atoms: _271  and  _272
REMARK  108  A    between atoms: _275  and  _277
REMARK  109  A    between atoms: _277  and  _278
REMARK  110  A    between atoms: _277  and  _280
REMARK  111  A    between atoms: _280  and  _281
REMARK  112  A    between atoms: _284  and  _286
REMARK  113  A    between atoms: _286  and  _287
REMARK  114  A    between atoms: _286  and  _289
REMARK  115  A    between atoms: _289  and  _290
REMARK  116  A    between atoms: _292  and  _294
REMARK  117  A    between atoms: _294  and  _295
REMARK  118  A    between atoms: _294  and  _297
REMARK  119  A    between atoms: _297  and  _298
REMARK  120  A    between atoms: _301  and  _303
REMARK  121  A    between atoms: _303  and  _304
REMARK  122  A    between atoms: _303  and  _306
REMARK  123  A    between atoms: _306  and  _307
REMARK  124  A    between atoms: _310  and  _312
REMARK  125  A    between atoms: _312  and  _313
REMARK  126  A    between atoms: _312  and  _315
REMARK  127  A    between atoms: _315  and  _316
REMARK  128  A    between atoms: _319  and  _321
REMARK  129  A    between atoms: _321  and  _322
REMARK  130  A    between atoms: _321  and  _324
REMARK  131  A    between atoms: _324  and  _325
REMARK  132  A    between atoms: _335  and  _337
REMARK  133  A    between atoms: _337  and  _338
REMARK  134  A    between atoms: _337  and  _340
REMARK  135  A    between atoms: _340  and  _341
REMARK  136  A    between atoms: _341  and  _342
REMARK  137  A    between atoms: _345  and  _347
REMARK  138  A    between atoms: _347  and  _348
REMARK  139  A    between atoms: _347  and  _350
REMARK  140  A    between atoms: _350  and  _351
REMARK  141  A    between atoms: _357  and  _359
REMARK  142  A    between atoms: _359  and  _360
REMARK  143  A    between atoms: _363  and  _365
REMARK  144  A    between atoms: _365  and  _366
REMARK  145  A    between atoms: _365  and  _368
REMARK  146  A    between atoms: _368  and  _369
REMARK  147  A    between atoms: _371  and  _373
REMARK  148  A    between atoms: _373  and  _374
REMARK  149  A    between atoms: _377  and  _379
REMARK  150  A    between atoms: _379  and  _380
REMARK  151  A    between atoms: _379  and  _382
REMARK  152  A    between atoms: _382  and  _383
REMARK  153  A    between atoms: _386  and  _388
REMARK  154  A    between atoms: _388  and  _389
REMARK  155  A    between atoms: _388  and  _391
REMARK  156  A    between atoms: _391  and  _392
REMARK  157  A    between atoms: _398  and  _400
REMARK  158  A    between atoms: _400  and  _401
REMARK  159  A    between atoms: _400  and  _403
REMARK  160  A    between atoms: _403  and  _404
REMARK  161  A    between atoms: _404  and  _405
REMARK  162  A    between atoms: _407  and  _409
REMARK  163  A    between atoms: _409  and  _410
REMARK  164  A    between atoms: _409  and  _412
REMARK  165  A    between atoms: _412  and  _413
REMARK  166  A    between atoms: _418  and  _419
REMARK  167  A    between atoms: _421  and  _423
REMARK  168  A    between atoms: _423  and  _424
REMARK  169  A    between atoms: _423  and  _426
REMARK  170  A    between atoms: _426  and  _427
REMARK  171  A    between atoms: _430  and  _432
REMARK  172  A    between atoms: _432  and  _433
REMARK  173  A    between atoms: _432  and  _435
REMARK  174  A    between atoms: _435  and  _436
REMARK  175  A    between atoms: _442  and  _444
REMARK  176  A    between atoms: _444  and  _445
REMARK  177  A    between atoms: _444  and  _447
REMARK  178  A    between atoms: _447  and  _448
REMARK  179  A    between atoms: _448  and  _449
REMARK  180  A    between atoms: _454  and  _456
REMARK  181  A    between atoms: _456  and  _457
REMARK  182  A    between atoms: _456  and  _459
REMARK  183  A    between atoms: _459  and  _460
REMARK  184  A    between atoms: _463  and  _465
REMARK  185  A    between atoms: _465  and  _466
REMARK  186  A    between atoms: _469  and  _471
REMARK  187  A    between atoms: _471  and  _472
REMARK  188  A    between atoms: _471  and  _474
REMARK  189  A    between atoms: _474  and  _475
REMARK  190  A    between atoms: _475  and  _476
REMARK  191  A    between atoms: _478  and  _480
REMARK  192  A    between atoms: _480  and  _481
REMARK  193  A    between atoms: _480  and  _483
REMARK  194  A    between atoms: _483  and  _484
REMARK  195  A    between atoms: _489  and  _490
REMARK  196  A    between atoms: _492  and  _494
REMARK  197  A    between atoms: _494  and  _495
REMARK  198  A    between atoms: _497  and  _499
REMARK  199  A    between atoms: _499  and  _500
REMARK  200  A    between atoms: _499  and  _502
REMARK  201  A    between atoms: _502  and  _503
REMARK  202  A    between atoms: _503  and  _504
REMARK  203  A    between atoms: _504  and  _505
REMARK  204  A    between atoms: _514  and  _516
REMARK  205  A    between atoms: _516  and  _517
REMARK  206  A    between atoms: _516  and  _519
REMARK  207  A    between atoms: _519  and  _520
REMARK  208  A    between atoms: _530  and  _532
REMARK  209  A    between atoms: _532  and  _533
REMARK  210  A    between atoms: _532  and  _535
REMARK  211  A    between atoms: _535  and  _536
REMARK  212  A    between atoms: _536  and  _537
REMARK  213  A    between atoms: _540  and  _542
REMARK  214  A    between atoms: _542  and  _543
REMARK  215  A    between atoms: _542  and  _545
REMARK  216  A    between atoms: _545  and  _546
REMARK  217  A    between atoms: _551  and  _553
REMARK  218  A    between atoms: _553  and  _554
REMARK  219  A    between atoms: _556  and  _558
REMARK  220  A    between atoms: _558  and  _559
REMARK  221  A    between atoms: _558  and  _561
REMARK  222  A    between atoms: _561  and  _562
REMARK  223  A    between atoms: _565  and  _567
REMARK  224  A    between atoms: _567  and  _568
REMARK  225  A    between atoms: _567  and  _570
REMARK  226  A    between atoms: _573  and  _575
REMARK  227  A    between atoms: _575  and  _576
REMARK  228  A    between atoms: _575  and  _578
REMARK  229  A    between atoms: _578  and  _579
REMARK  230  A    between atoms: _582  and  _584
REMARK  231  A    between atoms: _584  and  _585
REMARK  232  A    between atoms: _584  and  _587
REMARK  233  A    between atoms: _587  and  _588
REMARK  234  A    between atoms: _594  and  _596
REMARK  235  A    between atoms: _596  and  _597
REMARK  236  A    between atoms: _596  and  _599
REMARK  237  A    between atoms: _599  and  _600
REMARK  238  A    between atoms: _602  and  _604
REMARK  239  A    between atoms: _604  and  _605
REMARK  240  A    between atoms: _604  and  _607
REMARK  241  A    between atoms: _607  and  _608
REMARK  242  A    between atoms: _618  and  _620
REMARK  243  A    between atoms: _620  and  _621
REMARK  244  A    between atoms: _620  and  _623
REMARK  245  A    between atoms: _623  and  _624
REMARK  246  A    between atoms: _624  and  _625
REMARK  247  A    between atoms: _628  and  _630
REMARK  248  A    between atoms: _630  and  _631
REMARK  249  A    between atoms: _630  and  _633
REMARK  250  A    between atoms: _633  and  _634
REMARK  251  A    between atoms: _637  and  _639
REMARK  252  A    between atoms: _639  and  _640
REMARK                            x       y       z     vdW  Elec       q    Type
REMARK                         _______ _______ _______ _____ _____    ______ ____
ROOT
ATOM      1  CG  TYR A   1      35.316  75.015   2.630  0.00  0.00    -0.020 A 
ATOM      2  CD2 TYR A   1      34.663  75.639   3.704  0.00  0.00    -0.001 A 
ATOM      3  CE2 TYR A   1      34.141  74.901   4.756  0.00  0.00    +0.036 A 
ATOM      4  CZ  TYR A   1      34.238  73.481   4.722  0.00  0.00    +0.134 A 
ATOM      5  CE1 TYR A   1      34.849  72.850   3.668  0.00  0.00    +0.036 A 
ATOM      6  CD1 TYR A   1      35.408  73.611   2.622  0.00  0.00    -0.001 A 
ENDROOT
BRANCH   4   7
ATOM      7  OH  TYR A   1      33.686  72.716   5.752  0.00  0.00    -0.506 OA
ATOM      8  HH  TYR A   1      34.396  72.168   6.172  0.00  0.00    +0.292 HD
ENDBRANCH   4   7
BRANCH   1   9
ATOM      9  CB  TYR A   1      35.910  75.820   1.498  0.00  0.00    +0.051 C 
BRANCH   9  10
ATOM     10  CA  TYR A   1      37.301  76.425   1.821  0.00  0.00    +0.137 C 
BRANCH  10  11
ATOM     11  N   TYR A   1      37.136  77.636   2.636  0.00  0.00    -0.239 NA
ATOM     12  H   TYR A   1      36.348  78.281   2.425  0.00  0.00    +0.142 HD
ENDBRANCH  10  11
BRANCH  10  13
ATOM     13  C   TYR A   1      37.962  76.741   0.484  0.00  0.00    +0.224 C 
ATOM     14  O   TYR A   1      37.540  77.680  -0.197  0.00  0.00    -0.287 OA
ENDBRANCH  10  13
ENDBRANCH   9  10
ENDBRANCH   1   9
TORSDOF 5
REMARK  Name = ../refined-set-2016/2wm0/2wm0_pocket.pdb
REMARK  252 active torsions:
REMARK  status: ('A' for Active; 'I' for Inactive)
REMARK    1  A    between atoms: _1  and  _3
REMARK    2  A    between atoms: _3  and  _4
REMARK    3  A    between atoms: _3  and  _6
REMARK    4  A    between atoms: _6  and  _7
REMARK    5  A    between atoms: _12  and  _13
REMARK    6  A    between atoms: _15  and  _17
REMARK    7  A    between atoms: _17  and  _18
REMARK    8  A    between atoms: _17  and  _20
REMARK    9  A    between atoms: _23  and  _25
REMARK   10  A    between atoms: _25  and  _26
REMARK   11  A    between atoms: _25  and  _28
REMARK   12  A    between atoms: _28  and  _29
REMARK   13  A    between atoms: _29  and  _30
REMARK   14  A    between atoms: _33  and  _35
REMARK   15  A    between atoms: _35  and  _36
REMARK   16  A    between atoms: _35  and  _38
REMARK   17  A    between atoms: _38  and  _39
REMARK   18  A    between atoms: _49  and  _51
REMARK   19  A    between atoms: _51  and  _52
REMARK   20  A    between atoms: _54  and  _56
REMARK   21  A    between atoms: _56  and  _57
REMARK   22  A    between atoms: _56  and  _59
REMARK   23  A    between atoms: _59  and  _60
REMARK   24  A    between atoms: _65  and  _66
REMARK   25  A    between atoms: _68  and  _70
REMARK   26  A    between atoms: _70  and  _71
REMARK   27  A    between atoms: _73  and  _75
REMARK   28  A    between atoms: _75  and  _76
REMARK   29  A    between atoms: _75  and  _78
REMARK   30  A    between atoms: _78  and  _79
REMARK   31  A    between atoms: _79  and  _80
REMARK   32  A    between atoms: _80  and  _81
REMARK   33  A    between atoms: _90  and  _92
REMARK   34  A    between atoms: _92  and  _93
REMARK   35  A    between atoms: _92  and  _95
REMARK   36  A    between atoms: _95  and  _96
REMARK   37  A    between atoms: _99  and  _101
REMARK   38  A    between atoms: _101  and  _102
REMARK   39  A    between atoms: _104  and  _106
REMARK   40  A    between atoms: _106  and  _107
REMARK   41  A    between atoms: _106  and  _109
REMARK   42  A    between atoms: _109  and  _110
REMARK   43  A    between atoms: _116  and  _118
REMARK   44  A    between atoms: _118  and  _119
REMARK   45  A    between atoms: _118  and  _121
REMARK   46  A    between atoms: _121  and  _122
REMARK   47  A    between atoms: _126  and  _127
REMARK   48  A    between atoms: _132  and  _134
REMARK   49  A    between atoms: _134  and  _135
REMARK   50  A    between atoms: _134  and  _137
REMARK   51  A    between atoms: _137  and  _138
REMARK   52  A    between atoms: _140  and  _142
REMARK   53  A    between atoms: _142  and  _143
REMARK   54  A    between atoms: _142  and  _145
REMARK   55  A    between atoms: _145  and  _146
REMARK   56  A    between atoms: _149  and  _151
REMARK   57  A    between atoms: _151  and  _152
REMARK   58  A    between atoms: _151  and  _154
REMARK   59  A    between atoms: _154  and  _155
REMARK   60  A    between atoms: _155  and  _156
REMARK   61  A    between atoms: _159  and  _161
REMARK   62  A    between atoms: _161  and  _162
REMARK   63  A    between atoms: _161  and  _164
REMARK   64  A    between atoms: _164  and  _165
REMARK   65  A    between atoms: _168  and  _170
REMARK   66  A    between atoms: _170  and  _171
REMARK   67  A    between atoms: _170  and  _173
REMARK   68  A    between atoms: _173  and  _174
REMARK   69  A    between atoms: _174  and  _175
REMARK   70  A    between atoms: _178  and  _180
REMARK   71  A    between atoms: _180  and  _181
REMARK   72  A    between atoms: _183  and  _185
REMARK   73  A    between atoms: _185  and  _186
REMARK   74  A    between atoms: _185  and  _188
REMARK   75  A    between atoms: _188  and  _189
REMARK   76  A    between atoms: _191  and  _193
REMARK   77  A    between atoms: _193  and  _194
REMARK   78  A    between atoms: _193  and  _196
REMARK   79  A    between atoms: _196  and  _197
REMARK   80  A    between atoms: _203  and  _205
REMARK   81  A    between atoms: _205  and  _206
REMARK   82  A    between atoms: _205  and  _208
REMARK   83  A    between atoms: _208  and  _209
REMARK   84  A    between atoms: _214  and  _216
REMARK   85  A    between atoms: _216  and  _217
REMARK   86  A    between atoms: _216  and  _219
REMARK   87  A    between atoms: _219  and  _220
REMARK   88  A    between atoms: _223  and  _225
REMARK   89  A    between atoms: _225  and  _226
REMARK   90  A    between atoms: _225  and  _228
REMARK   91  A    between atoms: _228  and  _229
REMARK   92  A    between atoms: _231  and  _233
REMARK   93  A    between atoms: _233  and  _234
REMARK   94  A    between atoms: _233  and  _236
REMARK   95  A    between atoms: _236  and  _237
REMARK   96  A    between atoms: _240  and  _242
REMARK   97  A    between atoms: _242  and  _243
REMARK   98  A    between atoms: _245  and  _247
REMARK   99  A    between atoms: _247  and  _248
REMARK  100  A    between atoms: _250  and  _252
REMARK  101  A    between atoms: _252  and  _253
REMARK  102  A    between atoms: _252  and  _255
REMARK  103  A    between atoms: _255  and  _256
REMARK  104  A    between atoms: _266  and  _268
REMARK  105  A    between atoms: _268  and  _269
REMARK  106  A    between atoms: _268  and  _271
REMARK  107  A    between atoms: _271  and  _272
REMARK  108  A    between atoms: _275  and  _277
REMARK  109  A    between atoms: _277  and  _278
REMARK  110  A    between atoms: _277  and  _280
REMARK  111  A    between atoms: _280  and  _281
REMARK  112  A    between atoms: _284  and  _286
REMARK  113  A    between atoms: _286  and  _287
REMARK  114  A    between atoms: _286  and  _289
REMARK  115  A    between atoms: _289  and  _290
REMARK  116  A    between atoms: _292  and  _294
REMARK  117  A    between atoms: _294  and  _295
REMARK  118  A    between atoms: _294  and  _297
REMARK  119  A    between atoms: _297  and  _298
REMARK  120  A    between atoms: _301  and  _303
REMARK  121  A    between atoms: _303  and  _304
REMARK  122  A    between atoms: _303  and  _306
REMARK  123  A    between atoms: _306  and  _307
REMARK  124  A    between atoms: _310  and  _312
REMARK  125  A    between atoms: _312  and  _313
REMARK  126  A    between atoms: _312  and  _315
REMARK  127  A    between atoms: _315  and  _316
REMARK  128  A    between atoms: _319  and  _321
REMARK  129  A    between atoms: _321  and  _322
REMARK  130  A    between atoms: _321  and  _324
REMARK  131  A    between atoms: _324  and  _325
REMARK  132  A    between atoms: _335  and  _337
REMARK  133  A    between atoms: _337  and  _338
REMARK  134  A    between atoms: _337  and  _340
REMARK  135  A    between atoms: _340  and  _341
REMARK  136  A    between atoms: _341  and  _342
REMARK  137  A    between atoms: _345  and  _347
REMARK  138  A    between atoms: _347  and  _348
REMARK  139  A    between atoms: _347  and  _350
REMARK  140  A    between atoms: _350  and  _351
REMARK  141  A    between atoms: _357  and  _359
REMARK  142  A    between atoms: _359  and  _360
REMARK  143  A    between atoms: _363  and  _365
REMARK  144  A    between atoms: _365  and  _366
REMARK  145  A    between atoms: _365  and  _368
REMARK  146  A    between atoms: _368  and  _369
REMARK  147  A    between atoms: _371  and  _373
REMARK  148  A    between atoms: _373  and  _374
REMARK  149  A    between atoms: _377  and  _379
REMARK  150  A    between atoms: _379  and  _380
REMARK  151  A    between atoms: _379  and  _382
REMARK  152  A    between atoms: _382  and  _383
REMARK  153  A    between atoms: _386  and  _388
REMARK  154  A    between atoms: _388  and  _389
REMARK  155  A    between atoms: _388  and  _391
REMARK  156  A    between atoms: _391  and  _392
REMARK  157  A    between atoms: _398  and  _400
REMARK  158  A    between atoms: _400  and  _401
REMARK  159  A    between atoms: _400  and  _403
REMARK  160  A    between atoms: _403  and  _404
REMARK  161  A    between atoms: _404  and  _405
REMARK  162  A    between atoms: _407  and  _409
REMARK  163  A    between atoms: _409  and  _410
REMARK  164  A    between atoms: _409  and  _412
REMARK  165  A    between atoms: _412  and  _413
REMARK  166  A    between atoms: _418  and  _419
REMARK  167  A    between atoms: _421  and  _423
REMARK  168  A    between atoms: _423  and  _424
REMARK  169  A    between atoms: _423  and  _426
REMARK  170  A    between atoms: _426  and  _427
REMARK  171  A    between atoms: _430  and  _432
REMARK  172  A    between atoms: _432  and  _433
REMARK  173  A    between atoms: _432  and  _435
REMARK  174  A    between atoms: _435  and  _436
REMARK  175  A    between atoms: _442  and  _444
REMARK  176  A    between atoms: _444  and  _445
REMARK  177  A    between atoms: _444  and  _447
REMARK  178  A    between atoms: _447  and  _448
REMARK  179  A    between atoms: _448  and  _449
REMARK  180  A    between atoms: _454  and  _456
REMARK  181  A    between atoms: _456  and  _457
REMARK  182  A    between atoms: _456  and  _459
REMARK  183  A    between atoms: _459  and  _460
REMARK  184  A    between atoms: _463  and  _465
REMARK  185  A    between atoms: _465  and  _466
REMARK  186  A    between atoms: _469  and  _471
REMARK  187  A    between atoms: _471  and  _472
REMARK  188  A    between atoms: _471  and  _474
REMARK  189  A    between atoms: _474  and  _475
REMARK  190  A    between atoms: _475  and  _476
REMARK  191  A    between atoms: _478  and  _480
REMARK  192  A    between atoms: _480  and  _481
REMARK  193  A    between atoms: _480  and  _483
REMARK  194  A    between atoms: _483  and  _484
REMARK  195  A    between atoms: _489  and  _490
REMARK  196  A    between atoms: _492  and  _494
REMARK  197  A    between atoms: _494  and  _495
REMARK  198  A    between atoms: _497  and  _499
REMARK  199  A    between atoms: _499  and  _500
REMARK  200  A    between atoms: _499  and  _502
REMARK  201  A    between atoms: _502  and  _503
REMARK  202  A    between atoms: _503  and  _504
REMARK  203  A    between atoms: _504  and  _505
REMARK  204  A    between atoms: _514  and  _516
REMARK  205  A    between atoms: _516  and  _517
REMARK  206  A    between atoms: _516  and  _519
REMARK  207  A    between atoms: _519  and  _520
REMARK  208  A    between atoms: _530  and  _532
REMARK  209  A    between atoms: _532  and  _533
REMARK  210  A    between atoms: _532  and  _535
REMARK  211  A    between atoms: _535  and  _536
REMARK  212  A    between atoms: _536  and  _537
REMARK  213  A    between atoms: _540  and  _542
REMARK  214  A    between atoms: _542  and  _543
REMARK  215  A    between atoms: _542  and  _545
REMARK  216  A    between atoms: _545  and  _546
REMARK  217  A    between atoms: _551  and  _553
REMARK  218  A    between atoms: _553  and  _554
REMARK  219  A    between atoms: _556  and  _558
REMARK  220  A    between atoms: _558  and  _559
REMARK  221  A    between atoms: _558  and  _561
REMARK  222  A    between atoms: _561  and  _562
REMARK  223  A    between atoms: _565  and  _567
REMARK  224  A    between atoms: _567  and  _568
REMARK  225  A    between atoms: _567  and  _570
REMARK  226  A    between atoms: _573  and  _575
REMARK  227  A    between atoms: _575  and  _576
REMARK  228  A    between atoms: _575  and  _578
REMARK  229  A    between atoms: _578  and  _579
REMARK  230  A    between atoms: _582  and  _584
REMARK  231  A    between atoms: _584  and  _585
REMARK  232  A    between atoms: _584  and  _587
REMARK  233  A    between atoms: _587  and  _588
REMARK  234  A    between atoms: _594  and  _596
REMARK  235  A    between atoms: _596  and  _597
REMARK  236  A    between atoms: _596  and  _599
REMARK  237  A    between atoms: _599  and  _600
REMARK  238  A    between atoms: _602  and  _604
REMARK  239  A    between atoms: _604  and  _605
REMARK  240  A    between atoms: _604  and  _607
REMARK  241  A    between atoms: _607  and  _608
REMARK  242  A    between atoms: _618  and  _620
REMARK  243  A    between atoms: _620  and  _621
REMARK  244  A    between atoms: _620  and  _623
REMARK  245  A    between atoms: _623  and  _624
REMARK  246  A    between atoms: _624  and  _625
REMARK  247  A    between atoms: _628  and  _630
REMARK  248  A    between atoms: _630  and  _631
REMARK  249  A    between atoms: _630  and  _633
REMARK  250  A    between atoms: _633  and  _634
REMARK  251  A    between atoms: _637  and  _639
REMARK  252  A    between atoms: _639  and  _640
REMARK                            x       y       z     vdW  Elec       q    Type
REMARK                         _______ _______ _______ _____ _____    ______ ____
ROOT
ATOM      1  C   GLU A   2      39.908  71.505  -7.285  0.00  0.00    +0.241 C 
ATOM      2  N   TRP A   3      38.655  71.585  -7.722  0.00  0.00    -0.297 N 
ATOM      3  H   TRP A   3      37.871  71.479  -7.047  0.00  0.00    +0.150 HD
ATOM      4  O   GLU A   2      40.909  71.712  -8.007  0.00  0.00    -0.273 OA
ENDROOT
BRANCH   1   5
ATOM      5  CA  GLU A   2      40.074  71.141  -5.804  0.00  0.00    +0.149 C 
BRANCH   5   7
ATOM      6  C   VAL A   1      39.027  73.167  -4.917  0.00  0.00    +0.238 C 
ATOM      7  N   GLU A   2      39.123  71.838  -4.933  0.00  0.00    -0.297 N 
ATOM      8  H   GLU A   2      38.506  71.279  -4.310  0.00  0.00    +0.150 HD
ATOM      9  O   VAL A   1      39.674  73.919  -5.700  0.00  0.00    -0.274 OA
BRANCH   6  10
ATOM     10  CA  VAL A   1      38.050  73.740  -3.916  0.00  0.00    +0.145 C 
BRANCH  10  11
ATOM     11  CB  VAL A   1      36.702  74.099  -4.591  0.00  0.00    +0.025 C 
ATOM     12  CG2 VAL A   1      35.729  74.545  -3.532  0.00  0.00    +0.002 C 
ATOM     13  CG1 VAL A   1      36.882  75.268  -5.673  0.00  0.00    +0.002 C 
ENDBRANCH  10  11
BRANCH  10  14
ATOM     14  N   VAL A   1      38.624  74.891  -3.179  0.00  0.00    -0.238 NA
ATOM     15  H   VAL A   1      38.679  75.823  -3.637  0.00  0.00    +0.142 HD
ENDBRANCH  10  14
ENDBRANCH   6  10
ENDBRANCH   5   7
BRANCH   5  16
ATOM     16  CB  GLU A   2      39.823  69.636  -5.686  0.00  0.00    +0.041 C 
BRANCH  16  17
ATOM     17  CG  GLU A   2      40.697  68.760  -6.566  0.00  0.00    +0.116 C 
BRANCH  17  18
ATOM     18  CD  GLU A   2      40.683  67.303  -6.063  0.00  0.00    +0.365 C 
ATOM     19  OE2 GLU A   2      41.474  66.990  -5.160  0.00  0.00    -0.246 OA
ATOM     20  OE1 GLU A   2      39.909  66.480  -6.601  0.00  0.00    -0.246 OA
ENDBRANCH  17  18
ENDBRANCH  16  17
ENDBRANCH   5  16
ENDBRANCH   1   5
BRANCH   2  21
ATOM     21  CA  TRP A   3      38.354  71.824  -9.161  0.00  0.00    +0.153 C 
BRANCH  21  22
ATOM     22  C   TRP A   3      38.517  73.322  -9.534  0.00  0.00    +0.241 C 
ATOM     23  N   GLY A   4      38.863  74.171  -8.548  0.00  0.00    -0.296 N 
ATOM     24  H   GLY A   4      39.069  73.792  -7.602  0.00  0.00    +0.150 HD
ATOM     25  O   TRP A   3      38.336  73.683 -10.691  0.00  0.00    -0.273 OA
BRANCH  23  26
ATOM     26  CA  GLY A   4      38.958  75.637  -8.777  0.00  0.00    +0.163 C 
BRANCH  26  27
ATOM     27  C   GLY A   4      40.185  76.012  -9.604  0.00  0.00    +0.229 C 
ATOM     28  O   GLY A   4      40.314  77.166 -10.019  0.00  0.00    -0.286 OA
ENDBRANCH  26  27
ENDBRANCH  23  26
ENDBRANCH  21  22
BRANCH  21  29
ATOM     29  CB  TRP A   3      36.893  71.401  -9.458  0.00  0.00    +0.057 C 
BRANCH  29  30
ATOM     30  CG  TRP A   3      35.878  72.064  -8.590  0.00  0.00    -0.002 A 
ATOM     31  CD2 TRP A   3      35.426  71.612  -7.286  0.00  0.00    +0.013 A 
ATOM     32  CE3 TRP A   3      35.743  70.500  -6.464  0.00  0.00    +0.001 A 
ATOM     33  CZ3 TRP A   3      35.085  70.376  -5.212  0.00  0.00    +0.000 A 
ATOM     34  CH2 TRP A   3      34.150  71.327  -4.782  0.00  0.00    +0.001 A 
ATOM     35  CZ2 TRP A   3      33.821  72.427  -5.580  0.00  0.00    +0.017 A 
ATOM     36  CE2 TRP A   3      34.481  72.551  -6.828  0.00  0.00    +0.056 A 
ATOM     37  NE1 TRP A   3      34.380  73.524  -7.787  0.00  0.00    -0.352 N 
ATOM     38  HE1 TRP A   3      33.763  74.360  -7.733  0.00  0.00    +0.166 HD
ATOM     39  CD1 TRP A   3      35.224  73.222  -8.834  0.00  0.00    +0.068 A 
ENDBRANCH  29  30
ENDBRANCH  21  29
ENDBRANCH   2  21
TORSDOF 14
REMARK  Name = ../refined-set-2016/2wm0/2wm0_pocket.pdb
REMARK  252 active torsions:
REMARK  status: ('A' for Active; 'I' for Inactive)
REMARK    1  A    between atoms: _1  and  _3
REMARK    2  A    between atoms: _3  and  _4
REMARK    3  A    between atoms: _3  and  _6
REMARK    4  A    between atoms: _6  and  _7
REMARK    5  A    between atoms: _12  and  _13
REMARK    6  A    between atoms: _15  and  _17
REMARK    7  A    between atoms: _17  and  _18
REMARK    8  A    between atoms: _17  and  _20
REMARK    9  A    between atoms: _23  and  _25
REMARK   10  A    between atoms: _25  and  _26
REMARK   11  A    between atoms: _25  and  _28
REMARK   12  A    between atoms: _28  and  _29
REMARK   13  A    between atoms: _29  and  _30
REMARK   14  A    between atoms: _33  and  _35
REMARK   15  A    between atoms: _35  and  _36
REMARK   16  A    between atoms: _35  and  _38
REMARK   17  A    between atoms: _38  and  _39
REMARK   18  A    between atoms: _49  and  _51
REMARK   19  A    between atoms: _51  and  _52
REMARK   20  A    between atoms: _54  and  _56
REMARK   21  A    between atoms: _56  and  _57
REMARK   22  A    between atoms: _56  and  _59
REMARK   23  A    between atoms: _59  and  _60
REMARK   24  A    between atoms: _65  and  _66
REMARK   25  A    between atoms: _68  and  _70
REMARK   26  A    between atoms: _70  and  _71
REMARK   27  A    between atoms: _73  and  _75
REMARK   28  A    between atoms: _75  and  _76
REMARK   29  A    between atoms: _75  and  _78
REMARK   30  A    between atoms: _78  and  _79
REMARK   31  A    between atoms: _79  and  _80
REMARK   32  A    between atoms: _80  and  _81
REMARK   33  A    between atoms: _90  and  _92
REMARK   34  A    between atoms: _92  and  _93
REMARK   35  A    between atoms: _92  and  _95
REMARK   36  A    between atoms: _95  and  _96
REMARK   37  A    between atoms: _99  and  _101
REMARK   38  A    between atoms: _101  and  _102
REMARK   39  A    between atoms: _104  and  _106
REMARK   40  A    between atoms: _106  and  _107
REMARK   41  A    between atoms: _106  and  _109
REMARK   42  A    between atoms: _109  and  _110
REMARK   43  A    between atoms: _116  and  _118
REMARK   44  A    between atoms: _118  and  _119
REMARK   45  A    between atoms: _118  and  _121
REMARK   46  A    between atoms: _121  and  _122
REMARK   47  A    between atoms: _126  and  _127
REMARK   48  A    between atoms: _132  and  _134
REMARK   49  A    between atoms: _134  and  _135
REMARK   50  A    between atoms: _134  and  _137
REMARK   51  A    between atoms: _137  and  _138
REMARK   52  A    between atoms: _140  and  _142
REMARK   53  A    between atoms: _142  and  _143
REMARK   54  A    between atoms: _142  and  _145
REMARK   55  A    between atoms: _145  and  _146
REMARK   56  A    between atoms: _149  and  _151
REMARK   57  A    between atoms: _151  and  _152
REMARK   58  A    between atoms: _151  and  _154
REMARK   59  A    between atoms: _154  and  _155
REMARK   60  A    between atoms: _155  and  _156
REMARK   61  A    between atoms: _159  and  _161
REMARK   62  A    between atoms: _161  and  _162
REMARK   63  A    between atoms: _161  and  _164
REMARK   64  A    between atoms: _164  and  _165
REMARK   65  A    between atoms: _168  and  _170
REMARK   66  A    between atoms: _170  and  _171
REMARK   67  A    between atoms: _170  and  _173
REMARK   68  A    between atoms: _173  and  _174
REMARK   69  A    between atoms: _174  and  _175
REMARK   70  A    between atoms: _178  and  _180
REMARK   71  A    between atoms: _180  and  _181
REMARK   72  A    between atoms: _183  and  _185
REMARK   73  A    between atoms: _185  and  _186
REMARK   74  A    between atoms: _185  and  _188
REMARK   75  A    between atoms: _188  and  _189
REMARK   76  A    between atoms: _191  and  _193
REMARK   77  A    between atoms: _193  and  _194
REMARK   78  A    between atoms: _193  and  _196
REMARK   79  A    between atoms: _196  and  _197
REMARK   80  A    between atoms: _203  and  _205
REMARK   81  A    between atoms: _205  and  _206
REMARK   82  A    between atoms: _205  and  _208
REMARK   83  A    between atoms: _208  and  _209
REMARK   84  A    between atoms: _214  and  _216
REMARK   85  A    between atoms: _216  and  _217
REMARK   86  A    between atoms: _216  and  _219
REMARK   87  A    between atoms: _219  and  _220
REMARK   88  A    between atoms: _223  and  _225
REMARK   89  A    between atoms: _225  and  _226
REMARK   90  A    between atoms: _225  and  _228
REMARK   91  A    between atoms: _228  and  _229
REMARK   92  A    between atoms: _231  and  _233
REMARK   93  A    between atoms: _233  and  _234
REMARK   94  A    between atoms: _233  and  _236
REMARK   95  A    between atoms: _236  and  _237
REMARK   96  A    between atoms: _240  and  _242
REMARK   97  A    between atoms: _242  and  _243
REMARK   98  A    between atoms: _245  and  _247
REMARK   99  A    between atoms: _247  and  _248
REMARK  100  A    between atoms: _250  and  _252
REMARK  101  A    between atoms: _252  and  _253
REMARK  102  A    between atoms: _252  and  _255
REMARK  103  A    between atoms: _255  and  _256
REMARK  104  A    between atoms: _266  and  _268
REMARK  105  A    between atoms: _268  and  _269
REMARK  106  A    between atoms: _268  and  _271
REMARK  107  A    between atoms: _271  and  _272
REMARK  108  A    between atoms: _275  and  _277
REMARK  109  A    between atoms: _277  and  _278
REMARK  110  A    between atoms: _277  and  _280
REMARK  111  A    between atoms: _280  and  _281
REMARK  112  A    between atoms: _284  and  _286
REMARK  113  A    between atoms: _286  and  _287
REMARK  114  A    between atoms: _286  and  _289
REMARK  115  A    between atoms: _289  and  _290
REMARK  116  A    between atoms: _292  and  _294
REMARK  117  A    between atoms: _294  and  _295
REMARK  118  A    between atoms: _294  and  _297
REMARK  119  A    between atoms: _297  and  _298
REMARK  120  A    between atoms: _301  and  _303
REMARK  121  A    between atoms: _303  and  _304
REMARK  122  A    between atoms: _303  and  _306
REMARK  123  A    between atoms: _306  and  _307
REMARK  124  A    between atoms: _310  and  _312
REMARK  125  A    between atoms: _312  and  _313
REMARK  126  A    between atoms: _312  and  _315
REMARK  127  A    between atoms: _315  and  _316
REMARK  128  A    between atoms: _319  and  _321
REMARK  129  A    between atoms: _321  and  _322
REMARK  130  A    between atoms: _321  and  _324
REMARK  131  A    between atoms: _324  and  _325
REMARK  132  A    between atoms: _335  and  _337
REMARK  133  A    between atoms: _337  and  _338
REMARK  134  A    between atoms: _337  and  _340
REMARK  135  A    between atoms: _340  and  _341
REMARK  136  A    between atoms: _341  and  _342
REMARK  137  A    between atoms: _345  and  _347
REMARK  138  A    between atoms: _347  and  _348
REMARK  139  A    between atoms: _347  and  _350
REMARK  140  A    between atoms: _350  and  _351
REMARK  141  A    between atoms: _357  and  _359
REMARK  142  A    between atoms: _359  and  _360
REMARK  143  A    between atoms: _363  and  _365
REMARK  144  A    between atoms: _365  and  _366
REMARK  145  A    between atoms: _365  and  _368
REMARK  146  A    between atoms: _368  and  _369
REMARK  147  A    between atoms: _371  and  _373
REMARK  148  A    between atoms: _373  and  _374
REMARK  149  A    between atoms: _377  and  _379
REMARK  150  A    between atoms: _379  and  _380
REMARK  151  A    between atoms: _379  and  _382
REMARK  152  A    between atoms: _382  and  _383
REMARK  153  A    between atoms: _386  and  _388
REMARK  154  A    between atoms: _388  and  _389
REMARK  155  A    between atoms: _388  and  _391
REMARK  156  A    between atoms: _391  and  _392
REMARK  157  A    between atoms: _398  and  _400
REMARK  158  A    between atoms: _400  and  _401
REMARK  159  A    between atoms: _400  and  _403
REMARK  160  A    between atoms: _403  and  _404
REMARK  161  A    between atoms: _404  and  _405
REMARK  162  A    between atoms: _407  and  _409
REMARK  163  A    between atoms: _409  and  _410
REMARK  164  A    between atoms: _409  and  _412
REMARK  165  A    between atoms: _412  and  _413
REMARK  166  A    between atoms: _418  and  _419
REMARK  167  A    between atoms: _421  and  _423
REMARK  168  A    between atoms: _423  and  _424
REMARK  169  A    between atoms: _423  and  _426
REMARK  170  A    between atoms: _426  and  _427
REMARK  171  A    between atoms: _430  and  _432
REMARK  172  A    between atoms: _432  and  _433
REMARK  173  A    between atoms: _432  and  _435
REMARK  174  A    between atoms: _435  and  _436
REMARK  175  A    between atoms: _442  and  _444
REMARK  176  A    between atoms: _444  and  _445
REMARK  177  A    between atoms: _444  and  _447
REMARK  178  A    between atoms: _447  and  _448
REMARK  179  A    between atoms: _448  and  _449
REMARK  180  A    between atoms: _454  and  _456
REMARK  181  A    between atoms: _456  and  _457
REMARK  182  A    between atoms: _456  and  _459
REMARK  183  A    between atoms: _459  and  _460
REMARK  184  A    between atoms: _463  and  _465
REMARK  185  A    between atoms: _465  and  _466
REMARK  186  A    between atoms: _469  and  _471
REMARK  187  A    between atoms: _471  and  _472
REMARK  188  A    between atoms: _471  and  _474
REMARK  189  A    between atoms: _474  and  _475
REMARK  190  A    between atoms: _475  and  _476
REMARK  191  A    between atoms: _478  and  _480
REMARK  192  A    between atoms: _480  and  _481
REMARK  193  A    between atoms: _480  and  _483
REMARK  194  A    between atoms: _483  and  _484
REMARK  195  A    between atoms: _489  and  _490
REMARK  196  A    between atoms: _492  and  _494
REMARK  197  A    between atoms: _494  and  _495
REMARK  198  A    between atoms: _497  and  _499
REMARK  199  A    between atoms: _499  and  _500
REMARK  200  A    between atoms: _499  and  _502
REMARK  201  A    between atoms: _502  and  _503
REMARK  202  A    between atoms: _503  and  _504
REMARK  203  A    between atoms: _504  and  _505
REMARK  204  A    between atoms: _514  and  _516
REMARK  205  A    between atoms: _516  and  _517
REMARK  206  A    between atoms: _516  and  _519
REMARK  207  A    between atoms: _519  and  _520
REMARK  208  A    between atoms: _530  and  _532
REMARK  209  A    between atoms: _532  and  _533
REMARK  210  A    between atoms: _532  and  _535
REMARK  211  A    between atoms: _535  and  _536
REMARK  212  A    between atoms: _536  and  _537
REMARK  213  A    between atoms: _540  and  _542
REMARK  214  A    between atoms: _542  and  _543
REMARK  215  A    between atoms: _542  and  _545
REMARK  216  A    between atoms: _545  and  _546
REMARK  217  A    between atoms: _551  and  _553
REMARK  218  A    between atoms: _553  and  _554
REMARK  219  A    between atoms: _556  and  _558
REMARK  220  A    between atoms: _558  and  _559
REMARK  221  A    between atoms: _558  and  _561
REMARK  222  A    between atoms: _561  and  _562
REMARK  223  A    between atoms: _565  and  _567
REMARK  224  A    between atoms: _567  and  _568
REMARK  225  A    between atoms: _567  and  _570
REMARK  226  A    between atoms: _573  and  _575
REMARK  227  A    between atoms: _575  and  _576
REMARK  228  A    between atoms: _575  and  _578
REMARK  229  A    between atoms: _578  and  _579
REMARK  230  A    between atoms: _582  and  _584
REMARK  231  A    between atoms: _584  and  _585
REMARK  232  A    between atoms: _584  and  _587
REMARK  233  A    between atoms: _587  and  _588
REMARK  234  A    between atoms: _594  and  _596
REMARK  235  A    between atoms: _596  and  _597
REMARK  236  A    between atoms: _596  and  _599
REMARK  237  A    between atoms: _599  and  _600
REMARK  238  A    between atoms: _602  and  _604
REMARK  239  A    between atoms: _604  and  _605
REMARK  240  A    between atoms: _604  and  _607
REMARK  241  A    between atoms: _607  and  _608
REMARK  242  A    between atoms: _618  and  _620
REMARK  243  A    between atoms: _620  and  _621
REMARK  244  A    between atoms: _620  and  _623
REMARK  245  A    between atoms: _623  and  _624
REMARK  246  A    between atoms: _624  and  _625
REMARK  247  A    between atoms: _628  and  _630
REMARK  248  A    between atoms: _630  and  _631
REMARK  249  A    between atoms: _630  and  _633
REMARK  250  A    between atoms: _633  and  _634
REMARK  251  A    between atoms: _637  and  _639
REMARK  252  A    between atoms: _639  and  _640
REMARK                            x       y       z     vdW  Elec       q    Type
REMARK                         _______ _______ _______ _____ _____    ______ ____
ROOT
ATOM      1  C   GLY A   2      38.174  78.689 -14.169  0.00  0.00    +0.243 C 
ATOM      2  N   ARG A   3      38.084  78.463 -12.852  0.00  0.00    -0.298 N 
ATOM      3  H   ARG A   3      37.932  77.494 -12.507  0.00  0.00    +0.150 HD
ATOM      4  O   GLY A   2      38.320  79.833 -14.647  0.00  0.00    -0.273 OA
ENDROOT
BRANCH   1   5
ATOM      5  CA  GLY A   2      38.025  77.485 -15.084  0.00  0.00    +0.176 C 
BRANCH   5   8
ATOM      6  C   TYR A   1      40.003  76.277 -14.384  0.00  0.00    +0.239 C 
ATOM      7  O   TYR A   1      40.706  77.303 -14.407  0.00  0.00    -0.274 OA
ATOM      8  N   GLY A   2      38.701  76.275 -14.658  0.00  0.00    -0.296 N 
ATOM      9  H   GLY A   2      38.160  75.392 -14.565  0.00  0.00    +0.150 HD
BRANCH   6  10
ATOM     10  CA  TYR A   1      40.616  74.958 -13.967  0.00  0.00    +0.149 C 
BRANCH  10  11
ATOM     11  N   TYR A   1      40.893  75.025 -12.557  0.00  0.00    -0.238 NA
ATOM     12  H   TYR A   1      40.145  74.790 -11.874  0.00  0.00    +0.142 HD
ENDBRANCH  10  11
BRANCH  10  13
ATOM     13  CB  TYR A   1      39.720  73.759 -14.280  0.00  0.00    +0.053 C 
BRANCH  13  14
ATOM     14  CG  TYR A   1      40.403  72.441 -13.985  0.00  0.00    -0.020 A 
ATOM     15  CD2 TYR A   1      39.953  71.625 -12.944  0.00  0.00    -0.001 A 
ATOM     16  CE2 TYR A   1      40.566  70.422 -12.669  0.00  0.00    +0.036 A 
ATOM     17  CZ  TYR A   1      41.649  70.020 -13.426  0.00  0.00    +0.134 A 
ATOM     18  CE1 TYR A   1      42.156  70.823 -14.457  0.00  0.00    +0.036 A 
ATOM     19  CD1 TYR A   1      41.521  72.022 -14.735  0.00  0.00    -0.001 A 
BRANCH  17  20
ATOM     20  OH  TYR A   1      42.257  68.830 -13.165  0.00  0.00    -0.506 OA
ATOM     21  HH  TYR A   1      41.602  68.095 -13.273  0.00  0.00    +0.292 HD
ENDBRANCH  17  20
ENDBRANCH  13  14
ENDBRANCH  10  13
ENDBRANCH   6  10
ENDBRANCH   5   8
ENDBRANCH   1   5
BRANCH   2  22
ATOM     22  CA  ARG A   3      38.195  79.546 -11.907  0.00  0.00    +0.137 C 
BRANCH  22  23
ATOM     23  C   ARG A   3      39.658  80.043 -11.776  0.00  0.00    +0.227 C 
ATOM     24  O   ARG A   3      39.897  81.102 -11.211  0.00  0.00    -0.286 OA
ENDBRANCH  22  23
BRANCH  22  25
ATOM     25  CB  ARG A   3      37.639  79.123 -10.536  0.00  0.00    +0.031 C 
BRANCH  25  26
ATOM     26  CG  ARG A   3      36.124  78.943 -10.464  0.00  0.00    +0.045 C 
BRANCH  26  27
ATOM     27  CD  ARG A   3      35.762  78.182  -9.187  0.00  0.00    +0.174 C 
BRANCH  27  28
ATOM     28  NE  ARG A   3      34.319  78.110  -8.934  0.00  0.00    -0.265 N 
ATOM     29  HE  ARG A   3      33.908  78.760  -8.234  0.00  0.00    +0.259 HD
ATOM     30  CZ  ARG A   3      33.508  77.255  -9.555  0.00  0.00    +0.342 C 
ATOM     31  NH2 ARG A   3      32.230  77.264  -9.288  0.00  0.00    -0.292 N 
ATOM     32 HH21 ARG A   3      31.849  77.937  -8.593  0.00  0.00    +0.255 HD
ATOM     33 HH22 ARG A   3      31.593  76.598  -9.771  0.00  0.00    +0.255 HD
ATOM     34  NH1 ARG A   3      33.987  76.410 -10.460  0.00  0.00    -0.292 N 
ATOM     35 HH11 ARG A   3      35.002  76.413 -10.688  0.00  0.00    +0.255 HD
ATOM     36 HH12 ARG A   3      33.348  75.745 -10.941  0.00  0.00    +0.255 HD
ENDBRANCH  27  28
ENDBRANCH  26  27
ENDBRANCH  25  26
ENDBRANCH  22  25
ENDBRANCH   2  22
TORSDOF 13
REMARK  Name = ../refined-set-2016/2wm0/2wm0_pocket.pdb
REMARK  252 active torsions:
REMARK  status: ('A' for Active; 'I' for Inactive)
REMARK    1  A    between atoms: _1  and  _3
REMARK    2  A    between atoms: _3  and  _4
REMARK    3  A    between atoms: _3  and  _6
REMARK    4  A    between atoms: _6  and  _7
REMARK    5  A    between atoms: _12  and  _13
REMARK    6  A    between atoms: _15  and  _17
REMARK    7  A    between atoms: _17  and  _18
REMARK    8  A    between atoms: _17  and  _20
REMARK    9  A    between atoms: _23  and  _25
REMARK   10  A    between atoms: _25  and  _26
REMARK   11  A    between atoms: _25  and  _28
REMARK   12  A    between atoms: _28  and  _29
REMARK   13  A    between atoms: _29  and  _30
REMARK   14  A    between atoms: _33  and  _35
REMARK   15  A    between atoms: _35  and  _36
REMARK   16  A    between atoms: _35  and  _38
REMARK   17  A    between atoms: _38  and  _39
REMARK   18  A    between atoms: _49  and  _51
REMARK   19  A    between atoms: _51  and  _52
REMARK   20  A    between atoms: _54  and  _56
REMARK   21  A    between atoms: _56  and  _57
REMARK   22  A    between atoms: _56  and  _59
REMARK   23  A    between atoms: _59  and  _60
REMARK   24  A    between atoms: _65  and  _66
REMARK   25  A    between atoms: _68  and  _70
REMARK   26  A    between atoms: _70  and  _71
REMARK   27  A    between atoms: _73  and  _75
REMARK   28  A    between atoms: _75  and  _76
REMARK   29  A    between atoms: _75  and  _78
REMARK   30  A    between atoms: _78  and  _79
REMARK   31  A    between atoms: _79  and  _80
REMARK   32  A    between atoms: _80  and  _81
REMARK   33  A    between atoms: _90  and  _92
REMARK   34  A    between atoms: _92  and  _93
REMARK   35  A    between atoms: _92  and  _95
REMARK   36  A    between atoms: _95  and  _96
REMARK   37  A    between atoms: _99  and  _101
REMARK   38  A    between atoms: _101  and  _102
REMARK   39  A    between atoms: _104  and  _106
REMARK   40  A    between atoms: _106  and  _107
REMARK   41  A    between atoms: _106  and  _109
REMARK   42  A    between atoms: _109  and  _110
REMARK   43  A    between atoms: _116  and  _118
REMARK   44  A    between atoms: _118  and  _119
REMARK   45  A    between atoms: _118  and  _121
REMARK   46  A    between atoms: _121  and  _122
REMARK   47  A    between atoms: _126  and  _127
REMARK   48  A    between atoms: _132  and  _134
REMARK   49  A    between atoms: _134  and  _135
REMARK   50  A    between atoms: _134  and  _137
REMARK   51  A    between atoms: _137  and  _138
REMARK   52  A    between atoms: _140  and  _142
REMARK   53  A    between atoms: _142  and  _143
REMARK   54  A    between atoms: _142  and  _145
REMARK   55  A    between atoms: _145  and  _146
REMARK   56  A    between atoms: _149  and  _151
REMARK   57  A    between atoms: _151  and  _152
REMARK   58  A    between atoms: _151  and  _154
REMARK   59  A    between atoms: _154  and  _155
REMARK   60  A    between atoms: _155  and  _156
REMARK   61  A    between atoms: _159  and  _161
REMARK   62  A    between atoms: _161  and  _162
REMARK   63  A    between atoms: _161  and  _164
REMARK   64  A    between atoms: _164  and  _165
REMARK   65  A    between atoms: _168  and  _170
REMARK   66  A    between atoms: _170  and  _171
REMARK   67  A    between atoms: _170  and  _173
REMARK   68  A    between atoms: _173  and  _174
REMARK   69  A    between atoms: _174  and  _175
REMARK   70  A    between atoms: _178  and  _180
REMARK   71  A    between atoms: _180  and  _181
REMARK   72  A    between atoms: _183  and  _185
REMARK   73  A    between atoms: _185  and  _186
REMARK   74  A    between atoms: _185  and  _188
REMARK   75  A    between atoms: _188  and  _189
REMARK   76  A    between atoms: _191  and  _193
REMARK   77  A    between atoms: _193  and  _194
REMARK   78  A    between atoms: _193  and  _196
REMARK   79  A    between atoms: _196  and  _197
REMARK   80  A    between atoms: _203  and  _205
REMARK   81  A    between atoms: _205  and  _206
REMARK   82  A    between atoms: _205  and  _208
REMARK   83  A    between atoms: _208  and  _209
REMARK   84  A    between atoms: _214  and  _216
REMARK   85  A    between atoms: _216  and  _217
REMARK   86  A    between atoms: _216  and  _219
REMARK   87  A    between atoms: _219  and  _220
REMARK   88  A    between atoms: _223  and  _225
REMARK   89  A    between atoms: _225  and  _226
REMARK   90  A    between atoms: _225  and  _228
REMARK   91  A    between atoms: _228  and  _229
REMARK   92  A    between atoms: _231  and  _233
REMARK   93  A    between atoms: _233  and  _234
REMARK   94  A    between atoms: _233  and  _236
REMARK   95  A    between atoms: _236  and  _237
REMARK   96  A    between atoms: _240  and  _242
REMARK   97  A    between atoms: _242  and  _243
REMARK   98  A    between atoms: _245  and  _247
REMARK   99  A    between atoms: _247  and  _248
REMARK  100  A    between atoms: _250  and  _252
REMARK  101  A    between atoms: _252  and  _253
REMARK  102  A    between atoms: _252  and  _255
REMARK  103  A    between atoms: _255  and  _256
REMARK  104  A    between atoms: _266  and  _268
REMARK  105  A    between atoms: _268  and  _269
REMARK  106  A    between atoms: _268  and  _271
REMARK  107  A    between atoms: _271  and  _272
REMARK  108  A    between atoms: _275  and  _277
REMARK  109  A    between atoms: _277  and  _278
REMARK  110  A    between atoms: _277  and  _280
REMARK  111  A    between atoms: _280  and  _281
REMARK  112  A    between atoms: _284  and  _286
REMARK  113  A    between atoms: _286  and  _287
REMARK  114  A    between atoms: _286  and  _289
REMARK  115  A    between atoms: _289  and  _290
REMARK  116  A    between atoms: _292  and  _294
REMARK  117  A    between atoms: _294  and  _295
REMARK  118  A    between atoms: _294  and  _297
REMARK  119  A    between atoms: _297  and  _298
REMARK  120  A    between atoms: _301  and  _303
REMARK  121  A    between atoms: _303  and  _304
REMARK  122  A    between atoms: _303  and  _306
REMARK  123  A    between atoms: _306  and  _307
REMARK  124  A    between atoms: _310  and  _312
REMARK  125  A    between atoms: _312  and  _313
REMARK  126  A    between atoms: _312  and  _315
REMARK  127  A    between atoms: _315  and  _316
REMARK  128  A    between atoms: _319  and  _321
REMARK  129  A    between atoms: _321  and  _322
REMARK  130  A    between atoms: _321  and  _324
REMARK  131  A    between atoms: _324  and  _325
REMARK  132  A    between atoms: _335  and  _337
REMARK  133  A    between atoms: _337  and  _338
REMARK  134  A    between atoms: _337  and  _340
REMARK  135  A    between atoms: _340  and  _341
REMARK  136  A    between atoms: _341  and  _342
REMARK  137  A    between atoms: _345  and  _347
REMARK  138  A    between atoms: _347  and  _348
REMARK  139  A    between atoms: _347  and  _350
REMARK  140  A    between atoms: _350  and  _351
REMARK  141  A    between atoms: _357  and  _359
REMARK  142  A    between atoms: _359  and  _360
REMARK  143  A    between atoms: _363  and  _365
REMARK  144  A    between atoms: _365  and  _366
REMARK  145  A    between atoms: _365  and  _368
REMARK  146  A    between atoms: _368  and  _369
REMARK  147  A    between atoms: _371  and  _373
REMARK  148  A    between atoms: _373  and  _374
REMARK  149  A    between atoms: _377  and  _379
REMARK  150  A    between atoms: _379  and  _380
REMARK  151  A    between atoms: _379  and  _382
REMARK  152  A    between atoms: _382  and  _383
REMARK  153  A    between atoms: _386  and  _388
REMARK  154  A    between atoms: _388  and  _389
REMARK  155  A    between atoms: _388  and  _391
REMARK  156  A    between atoms: _391  and  _392
REMARK  157  A    between atoms: _398  and  _400
REMARK  158  A    between atoms: _400  and  _401
REMARK  159  A    between atoms: _400  and  _403
REMARK  160  A    between atoms: _403  and  _404
REMARK  161  A    between atoms: _404  and  _405
REMARK  162  A    between atoms: _407  and  _409
REMARK  163  A    between atoms: _409  and  _410
REMARK  164  A    between atoms: _409  and  _412
REMARK  165  A    between atoms: _412  and  _413
REMARK  166  A    between atoms: _418  and  _419
REMARK  167  A    between atoms: _421  and  _423
REMARK  168  A    between atoms: _423  and  _424
REMARK  169  A    between atoms: _423  and  _426
REMARK  170  A    between atoms: _426  and  _427
REMARK  171  A    between atoms: _430  and  _432
REMARK  172  A    between atoms: _432  and  _433
REMARK  173  A    between atoms: _432  and  _435
REMARK  174  A    between atoms: _435  and  _436
REMARK  175  A    between atoms: _442  and  _444
REMARK  176  A    between atoms: _444  and  _445
REMARK  177  A    between atoms: _444  and  _447
REMARK  178  A    between atoms: _447  and  _448
REMARK  179  A    between atoms: _448  and  _449
REMARK  180  A    between atoms: _454  and  _456
REMARK  181  A    between atoms: _456  and  _457
REMARK  182  A    between atoms: _456  and  _459
REMARK  183  A    between atoms: _459  and  _460
REMARK  184  A    between atoms: _463  and  _465
REMARK  185  A    between atoms: _465  and  _466
REMARK  186  A    between atoms: _469  and  _471
REMARK  187  A    between atoms: _471  and  _472
REMARK  188  A    between atoms: _471  and  _474
REMARK  189  A    between atoms: _474  and  _475
REMARK  190  A    between atoms: _475  and  _476
REMARK  191  A    between atoms: _478  and  _480
REMARK  192  A    between atoms: _480  and  _481
REMARK  193  A    between atoms: _480  and  _483
REMARK  194  A    between atoms: _483  and  _484
REMARK  195  A    between atoms: _489  and  _490
REMARK  196  A    between atoms: _492  and  _494
REMARK  197  A    between atoms: _494  and  _495
REMARK  198  A    between atoms: _497  and  _499
REMARK  199  A    between atoms: _499  and  _500
REMARK  200  A    between atoms: _499  and  _502
REMARK  201  A    between atoms: _502  and  _503
REMARK  202  A    between atoms: _503  and  _504
REMARK  203  A    between atoms: _504  and  _505
REMARK  204  A    between atoms: _514  and  _516
REMARK  205  A    between atoms: _516  and  _517
REMARK  206  A    between atoms: _516  and  _519
REMARK  207  A    between atoms: _519  and  _520
REMARK  208  A    between atoms: _530  and  _532
REMARK  209  A    between atoms: _532  and  _533
REMARK  210  A    between atoms: _532  and  _535
REMARK  211  A    between atoms: _535  and  _536
REMARK  212  A    between atoms: _536  and  _537
REMARK  213  A    between atoms: _540  and  _542
REMARK  214  A    between atoms: _542  and  _543
REMARK  215  A    between atoms: _542  and  _545
REMARK  216  A    between atoms: _545  and  _546
REMARK  217  A    between atoms: _551  and  _553
REMARK  218  A    between atoms: _553  and  _554
REMARK  219  A    between atoms: _556  and  _558
REMARK  220  A    between atoms: _558  and  _559
REMARK  221  A    between atoms: _558  and  _561
REMARK  222  A    between atoms: _561  and  _562
REMARK  223  A    between atoms: _565  and  _567
REMARK  224  A    between atoms: _567  and  _568
REMARK  225  A    between atoms: _567  and  _570
REMARK  226  A    between atoms: _573  and  _575
REMARK  227  A    between atoms: _575  and  _576
REMARK  228  A    between atoms: _575  and  _578
REMARK  229  A    between atoms: _578  and  _579
REMARK  230  A    between atoms: _582  and  _584
REMARK  231  A    between atoms: _584  and  _585
REMARK  232  A    between atoms: _584  and  _587
REMARK  233  A    between atoms: _587  and  _588
REMARK  234  A    between atoms: _594  and  _596
REMARK  235  A    between atoms: _596  and  _597
REMARK  236  A    between atoms: _596  and  _599
REMARK  237  A    between atoms: _599  and  _600
REMARK  238  A    between atoms: _602  and  _604
REMARK  239  A    between atoms: _604  and  _605
REMARK  240  A    between atoms: _604  and  _607
REMARK  241  A    between atoms: _607  and  _608
REMARK  242  A    between atoms: _618  and  _620
REMARK  243  A    between atoms: _620  and  _621
REMARK  244  A    between atoms: _620  and  _623
REMARK  245  A    between atoms: _623  and  _624
REMARK  246  A    between atoms: _624  and  _625
REMARK  247  A    between atoms: _628  and  _630
REMARK  248  A    between atoms: _630  and  _631
REMARK  249  A    between atoms: _630  and  _633
REMARK  250  A    between atoms: _633  and  _634
REMARK  251  A    between atoms: _637  and  _639
REMARK  252  A    between atoms: _639  and  _640
REMARK                            x       y       z     vdW  Elec       q    Type
REMARK                         _______ _______ _______ _____ _____    ______ ____
ROOT
ATOM      1  CA  LEU A   1      39.623  73.498   4.344  0.00  0.00    +0.133 C 
ENDROOT
BRANCH   1   2
ATOM      2  N   LEU A   1      40.285  74.783   4.570  0.00  0.00    -0.239 NA
ATOM      3  H   LEU A   1      39.791  75.663   4.319  0.00  0.00    +0.142 HD
ENDBRANCH   1   2
BRANCH   1   4
ATOM      4  C   LEU A   1      39.639  73.161   2.836  0.00  0.00    +0.224 C 
ATOM      5  O   LEU A   1      39.368  74.019   1.971  0.00  0.00    -0.287 OA
ENDBRANCH   1   4
BRANCH   1   6
ATOM      6  CB  LEU A   1      38.173  73.523   4.865  0.00  0.00    +0.025 C 
BRANCH   6   7
ATOM      7  CG  LEU A   1      38.165  73.717   6.401  0.00  0.00    +0.002 C 
ATOM      8  CD2 LEU A   1      37.278  72.662   6.982  0.00  0.00    +0.000 C 
ATOM      9  CD1 LEU A   1      37.649  75.143   6.747  0.00  0.00    +0.000 C 
ENDBRANCH   6   7
ENDBRANCH   1   6
TORSDOF 4
REMARK  Name = ../refined-set-2016/2wm0/2wm0_pocket.pdb
REMARK  252 active torsions:
REMARK  status: ('A' for Active; 'I' for Inactive)
REMARK    1  A    between atoms: _1  and  _3
REMARK    2  A    between atoms: _3  and  _4
REMARK    3  A    between atoms: _3  and  _6
REMARK    4  A    between atoms: _6  and  _7
REMARK    5  A    between atoms: _12  and  _13
REMARK    6  A    between atoms: _15  and  _17
REMARK    7  A    between atoms: _17  and  _18
REMARK    8  A    between atoms: _17  and  _20
REMARK    9  A    between atoms: _23  and  _25
REMARK   10  A    between atoms: _25  and  _26
REMARK   11  A    between atoms: _25  and  _28
REMARK   12  A    between atoms: _28  and  _29
REMARK   13  A    between atoms: _29  and  _30
REMARK   14  A    between atoms: _33  and  _35
REMARK   15  A    between atoms: _35  and  _36
REMARK   16  A    between atoms: _35  and  _38
REMARK   17  A    between atoms: _38  and  _39
REMARK   18  A    between atoms: _49  and  _51
REMARK   19  A    between atoms: _51  and  _52
REMARK   20  A    between atoms: _54  and  _56
REMARK   21  A    between atoms: _56  and  _57
REMARK   22  A    between atoms: _56  and  _59
REMARK   23  A    between atoms: _59  and  _60
REMARK   24  A    between atoms: _65  and  _66
REMARK   25  A    between atoms: _68  and  _70
REMARK   26  A    between atoms: _70  and  _71
REMARK   27  A    between atoms: _73  and  _75
REMARK   28  A    between atoms: _75  and  _76
REMARK   29  A    between atoms: _75  and  _78
REMARK   30  A    between atoms: _78  and  _79
REMARK   31  A    between atoms: _79  and  _80
REMARK   32  A    between atoms: _80  and  _81
REMARK   33  A    between atoms: _90  and  _92
REMARK   34  A    between atoms: _92  and  _93
REMARK   35  A    between atoms: _92  and  _95
REMARK   36  A    between atoms: _95  and  _96
REMARK   37  A    between atoms: _99  and  _101
REMARK   38  A    between atoms: _101  and  _102
REMARK   39  A    between atoms: _104  and  _106
REMARK   40  A    between atoms: _106  and  _107
REMARK   41  A    between atoms: _106  and  _109
REMARK   42  A    between atoms: _109  and  _110
REMARK   43  A    between atoms: _116  and  _118
REMARK   44  A    between atoms: _118  and  _119
REMARK   45  A    between atoms: _118  and  _121
REMARK   46  A    between atoms: _121  and  _122
REMARK   47  A    between atoms: _126  and  _127
REMARK   48  A    between atoms: _132  and  _134
REMARK   49  A    between atoms: _134  and  _135
REMARK   50  A    between atoms: _134  and  _137
REMARK   51  A    between atoms: _137  and  _138
REMARK   52  A    between atoms: _140  and  _142
REMARK   53  A    between atoms: _142  and  _143
REMARK   54  A    between atoms: _142  and  _145
REMARK   55  A    between atoms: _145  and  _146
REMARK   56  A    between atoms: _149  and  _151
REMARK   57  A    between atoms: _151  and  _152
REMARK   58  A    between atoms: _151  and  _154
REMARK   59  A    between atoms: _154  and  _155
REMARK   60  A    between atoms: _155  and  _156
REMARK   61  A    between atoms: _159  and  _161
REMARK   62  A    between atoms: _161  and  _162
REMARK   63  A    between atoms: _161  and  _164
REMARK   64  A    between atoms: _164  and  _165
REMARK   65  A    between atoms: _168  and  _170
REMARK   66  A    between atoms: _170  and  _171
REMARK   67  A    between atoms: _170  and  _173
REMARK   68  A    between atoms: _173  and  _174
REMARK   69  A    between atoms: _174  and  _175
REMARK   70  A    between atoms: _178  and  _180
REMARK   71  A    between atoms: _180  and  _181
REMARK   72  A    between atoms: _183  and  _185
REMARK   73  A    between atoms: _185  and  _186
REMARK   74  A    between atoms: _185  and  _188
REMARK   75  A    between atoms: _188  and  _189
REMARK   76  A    between atoms: _191  and  _193
REMARK   77  A    between atoms: _193  and  _194
REMARK   78  A    between atoms: _193  and  _196
REMARK   79  A    between atoms: _196  and  _197
REMARK   80  A    between atoms: _203  and  _205
REMARK   81  A    between atoms: _205  and  _206
REMARK   82  A    between atoms: _205  and  _208
REMARK   83  A    between atoms: _208  and  _209
REMARK   84  A    between atoms: _214  and  _216
REMARK   85  A    between atoms: _216  and  _217
REMARK   86  A    between atoms: _216  and  _219
REMARK   87  A    between atoms: _219  and  _220
REMARK   88  A    between atoms: _223  and  _225
REMARK   89  A    between atoms: _225  and  _226
REMARK   90  A    between atoms: _225  and  _228
REMARK   91  A    between atoms: _228  and  _229
REMARK   92  A    between atoms: _231  and  _233
REMARK   93  A    between atoms: _233  and  _234
REMARK   94  A    between atoms: _233  and  _236
REMARK   95  A    between atoms: _236  and  _237
REMARK   96  A    between atoms: _240  and  _242
REMARK   97  A    between atoms: _242  and  _243
REMARK   98  A    between atoms: _245  and  _247
REMARK   99  A    between atoms: _247  and  _248
REMARK  100  A    between atoms: _250  and  _252
REMARK  101  A    between atoms: _252  and  _253
REMARK  102  A    between atoms: _252  and  _255
REMARK  103  A    between atoms: _255  and  _256
REMARK  104  A    between atoms: _266  and  _268
REMARK  105  A    between atoms: _268  and  _269
REMARK  106  A    between atoms: _268  and  _271
REMARK  107  A    between atoms: _271  and  _272
REMARK  108  A    between atoms: _275  and  _277
REMARK  109  A    between atoms: _277  and  _278
REMARK  110  A    between atoms: _277  and  _280
REMARK  111  A    between atoms: _280  and  _281
REMARK  112  A    between atoms: _284  and  _286
REMARK  113  A    between atoms: _286  and  _287
REMARK  114  A    between atoms: _286  and  _289
REMARK  115  A    between atoms: _289  and  _290
REMARK  116  A    between atoms: _292  and  _294
REMARK  117  A    between atoms: _294  and  _295
REMARK  118  A    between atoms: _294  and  _297
REMARK  119  A    between atoms: _297  and  _298
REMARK  120  A    between atoms: _301  and  _303
REMARK  121  A    between atoms: _303  and  _304
REMARK  122  A    between atoms: _303  and  _306
REMARK  123  A    between atoms: _306  and  _307
REMARK  124  A    between atoms: _310  and  _312
REMARK  125  A    between atoms: _312  and  _313
REMARK  126  A    between atoms: _312  and  _315
REMARK  127  A    between atoms: _315  and  _316
REMARK  128  A    between atoms: _319  and  _321
REMARK  129  A    between atoms: _321  and  _322
REMARK  130  A    between atoms: _321  and  _324
REMARK  131  A    between atoms: _324  and  _325
REMARK  132  A    between atoms: _335  and  _337
REMARK  133  A    between atoms: _337  and  _338
REMARK  134  A    between atoms: _337  and  _340
REMARK  135  A    between atoms: _340  and  _341
REMARK  136  A    between atoms: _341  and  _342
REMARK  137  A    between atoms: _345  and  _347
REMARK  138  A    between atoms: _347  and  _348
REMARK  139  A    between atoms: _347  and  _350
REMARK  140  A    between atoms: _350  and  _351
REMARK  141  A    between atoms: _357  and  _359
REMARK  142  A    between atoms: _359  and  _360
REMARK  143  A    between atoms: _363  and  _365
REMARK  144  A    between atoms: _365  and  _366
REMARK  145  A    between atoms: _365  and  _368
REMARK  146  A    between atoms: _368  and  _369
REMARK  147  A    between atoms: _371  and  _373
REMARK  148  A    between atoms: _373  and  _374
REMARK  149  A    between atoms: _377  and  _379
REMARK  150  A    between atoms: _379  and  _380
REMARK  151  A    between atoms: _379  and  _382
REMARK  152  A    between atoms: _382  and  _383
REMARK  153  A    between atoms: _386  and  _388
REMARK  154  A    between atoms: _388  and  _389
REMARK  155  A    between atoms: _388  and  _391
REMARK  156  A    between atoms: _391  and  _392
REMARK  157  A    between atoms: _398  and  _400
REMARK  158  A    between atoms: _400  and  _401
REMARK  159  A    between atoms: _400  and  _403
REMARK  160  A    between atoms: _403  and  _404
REMARK  161  A    between atoms: _404  and  _405
REMARK  162  A    between atoms: _407  and  _409
REMARK  163  A    between atoms: _409  and  _410
REMARK  164  A    between atoms: _409  and  _412
REMARK  165  A    between atoms: _412  and  _413
REMARK  166  A    between atoms: _418  and  _419
REMARK  167  A    between atoms: _421  and  _423
REMARK  168  A    between atoms: _423  and  _424
REMARK  169  A    between atoms: _423  and  _426
REMARK  170  A    between atoms: _426  and  _427
REMARK  171  A    between atoms: _430  and  _432
REMARK  172  A    between atoms: _432  and  _433
REMARK  173  A    between atoms: _432  and  _435
REMARK  174  A    between atoms: _435  and  _436
REMARK  175  A    between atoms: _442  and  _444
REMARK  176  A    between atoms: _444  and  _445
REMARK  177  A    between atoms: _444  and  _447
REMARK  178  A    between atoms: _447  and  _448
REMARK  179  A    between atoms: _448  and  _449
REMARK  180  A    between atoms: _454  and  _456
REMARK  181  A    between atoms: _456  and  _457
REMARK  182  A    between atoms: _456  and  _459
REMARK  183  A    between atoms: _459  and  _460
REMARK  184  A    between atoms: _463  and  _465
REMARK  185  A    between atoms: _465  and  _466
REMARK  186  A    between atoms: _469  and  _471
REMARK  187  A    between atoms: _471  and  _472
REMARK  188  A    between atoms: _471  and  _474
REMARK  189  A    between atoms: _474  and  _475
REMARK  190  A    between atoms: _475  and  _476
REMARK  191  A    between atoms: _478  and  _480
REMARK  192  A    between atoms: _480  and  _481
REMARK  193  A    between atoms: _480  and  _483
REMARK  194  A    between atoms: _483  and  _484
REMARK  195  A    between atoms: _489  and  _490
REMARK  196  A    between atoms: _492  and  _494
REMARK  197  A    between atoms: _494  and  _495
REMARK  198  A    between atoms: _497  and  _499
REMARK  199  A    between atoms: _499  and  _500
REMARK  200  A    between atoms: _499  and  _502
REMARK  201  A    between atoms: _502  and  _503
REMARK  202  A    between atoms: _503  and  _504
REMARK  203  A    between atoms: _504  and  _505
REMARK  204  A    between atoms: _514  and  _516
REMARK  205  A    between atoms: _516  and  _517
REMARK  206  A    between atoms: _516  and  _519
REMARK  207  A    between atoms: _519  and  _520
REMARK  208  A    between atoms: _530  and  _532
REMARK  209  A    between atoms: _532  and  _533
REMARK  210  A    between atoms: _532  and  _535
REMARK  211  A    between atoms: _535  and  _536
REMARK  212  A    between atoms: _536  and  _537
REMARK  213  A    between atoms: _540  and  _542
REMARK  214  A    between atoms: _542  and  _543
REMARK  215  A    between atoms: _542  and  _545
REMARK  216  A    between atoms: _545  and  _546
REMARK  217  A    between atoms: _551  and  _553
REMARK  218  A    between atoms: _553  and  _554
REMARK  219  A    between atoms: _556  and  _558
REMARK  220  A    between atoms: _558  and  _559
REMARK  221  A    between atoms: _558  and  _561
REMARK  222  A    between atoms: _561  and  _562
REMARK  223  A    between atoms: _565  and  _567
REMARK  224  A    between atoms: _567  and  _568
REMARK  225  A    between atoms: _567  and  _570
REMARK  226  A    between atoms: _573  and  _575
REMARK  227  A    between atoms: _575  and  _576
REMARK  228  A    between atoms: _575  and  _578
REMARK  229  A    between atoms: _578  and  _579
REMARK  230  A    between atoms: _582  and  _584
REMARK  231  A    between atoms: _584  and  _585
REMARK  232  A    between atoms: _584  and  _587
REMARK  233  A    between atoms: _587  and  _588
REMARK  234  A    between atoms: _594  and  _596
REMARK  235  A    between atoms: _596  and  _597
REMARK  236  A    between atoms: _596  and  _599
REMARK  237  A    between atoms: _599  and  _600
REMARK  238  A    between atoms: _602  and  _604
REMARK  239  A    between atoms: _604  and  _605
REMARK  240  A    between atoms: _604  and  _607
REMARK  241  A    between atoms: _607  and  _608
REMARK  242  A    between atoms: _618  and  _620
REMARK  243  A    between atoms: _620  and  _621
REMARK  244  A    between atoms: _620  and  _623
REMARK  245  A    between atoms: _623  and  _624
REMARK  246  A    between atoms: _624  and  _625
REMARK  247  A    between atoms: _628  and  _630
REMARK  248  A    between atoms: _630  and  _631
REMARK  249  A    between atoms: _630  and  _633
REMARK  250  A    between atoms: _633  and  _634
REMARK  251  A    between atoms: _637  and  _639
REMARK  252  A    between atoms: _639  and  _640
REMARK                            x       y       z     vdW  Elec       q    Type
REMARK                         _______ _______ _______ _____ _____    ______ ____
ROOT
ATOM      1  C   PHE A   2      37.182  66.427  -1.438  0.00  0.00    +0.241 C 
ATOM      2  N   ILE A   3      37.379  65.686  -0.374  0.00  0.00    -0.297 N 
ATOM      3  H   ILE A   3      37.155  66.080   0.562  0.00  0.00    +0.150 HD
ATOM      4  O   PHE A   2      37.520  66.078  -2.572  0.00  0.00    -0.273 OA
ENDROOT
BRANCH   1   5
ATOM      5  CA  PHE A   2      36.509  67.745  -1.190  0.00  0.00    +0.153 C 
BRANCH   5   7
ATOM      6  C   GLY A   1      37.134  70.013  -2.034  0.00  0.00    +0.240 C 
ATOM      7  N   PHE A   2      36.924  68.704  -2.212  0.00  0.00    -0.297 N 
ATOM      8  H   PHE A   2      37.070  68.332  -3.172  0.00  0.00    +0.150 HD
ATOM      9  O   GLY A   1      37.579  70.711  -2.942  0.00  0.00    -0.274 OA
BRANCH   6  10
ATOM     10  CA  GLY A   1      36.866  70.652  -0.653  0.00  0.00    +0.169 C 
BRANCH  10  11
ATOM     11  N   GLY A   1      38.102  71.282  -0.134  0.00  0.00    -0.236 NA
ATOM     12  H   GLY A   1      38.347  72.243  -0.448  0.00  0.00    +0.142 HD
ENDBRANCH  10  11
ENDBRANCH   6  10
ENDBRANCH   5   7
BRANCH   5  13
ATOM     13  CB  PHE A   2      34.979  67.445  -1.261  0.00  0.00    +0.055 C 
BRANCH  13  14
ATOM     14  CG  PHE A   2      34.120  68.583  -0.830  0.00  0.00    -0.020 A 
ATOM     15  CD2 PHE A   2      34.003  68.907   0.515  0.00  0.00    -0.004 A 
ATOM     16  CE2 PHE A   2      33.186  69.952   0.930  0.00  0.00    -0.000 A 
ATOM     17  CZ  PHE A   2      32.446  70.628   0.006  0.00  0.00    -0.000 A 
ATOM     18  CE1 PHE A   2      32.555  70.296  -1.348  0.00  0.00    -0.000 A 
ATOM     19  CD1 PHE A   2      33.366  69.277  -1.752  0.00  0.00    -0.004 A 
ENDBRANCH  13  14
ENDBRANCH   5  13
ENDBRANCH   1   5
BRANCH   2  20
ATOM     20  CA  ILE A   3      37.900  64.335  -0.461  0.00  0.00    +0.149 C 
BRANCH  20  21
ATOM     21  C   ILE A   3      36.695  63.410  -0.558  0.00  0.00    +0.244 C 
ATOM     22  O   ILE A   3      35.798  63.470   0.285  0.00  0.00    -0.273 OA
ATOM     23  N   PRO A   4      36.651  62.570  -1.597  0.00  0.00    -0.273 N 
ATOM     24  CA  PRO A   4      35.497  61.682  -1.785  0.00  0.00    +0.140 C 
ATOM     25  CB  PRO A   4      35.540  61.408  -3.308  0.00  0.00    +0.030 C 
ATOM     26  CG  PRO A   4      37.073  61.237  -3.555  0.00  0.00    +0.024 C 
ATOM     27  CD  PRO A   4      37.669  62.413  -2.675  0.00  0.00    +0.094 C 
BRANCH  24  28
ATOM     28  C   PRO A   4      35.648  60.366  -1.001  0.00  0.00    +0.227 C 
ATOM     29  O   PRO A   4      36.741  60.005  -0.567  0.00  0.00    -0.286 OA
ENDBRANCH  24  28
ENDBRANCH  20  21
BRANCH  20  30
ATOM     30  CB  ILE A   3      38.705  64.012   0.821  0.00  0.00    +0.027 C 
ATOM     31  CG2 ILE A   3      39.073  62.438   0.925  0.00  0.00    +0.002 C 
BRANCH  30  32
ATOM     32  CG1 ILE A   3      39.938  64.962   0.915  0.00  0.00    +0.002 C 
ATOM     33  CD1 ILE A   3      40.842  64.917  -0.329  0.00  0.00    +0.000 C 
ENDBRANCH  30  32
ENDBRANCH  20  30
ENDBRANCH   2  20
TORSDOF 11
REMARK  Name = ../refined-set-2016/2wm0/2wm0_pocket.pdb
REMARK  252 active torsions:
REMARK  status: ('A' for Active; 'I' for Inactive)
REMARK    1  A    between atoms: _1  and  _3
REMARK    2  A    between atoms: _3  and  _4
REMARK    3  A    between atoms: _3  and  _6
REMARK    4  A    between atoms: _6  and  _7
REMARK    5  A    between atoms: _12  and  _13
REMARK    6  A    between atoms: _15  and  _17
REMARK    7  A    between atoms: _17  and  _18
REMARK    8  A    between atoms: _17  and  _20
REMARK    9  A    between atoms: _23  and  _25
REMARK   10  A    between atoms: _25  and  _26
REMARK   11  A    between atoms: _25  and  _28
REMARK   12  A    between atoms: _28  and  _29
REMARK   13  A    between atoms: _29  and  _30
REMARK   14  A    between atoms: _33  and  _35
REMARK   15  A    between atoms: _35  and  _36
REMARK   16  A    between atoms: _35  and  _38
REMARK   17  A    between atoms: _38  and  _39
REMARK   18  A    between atoms: _49  and  _51
REMARK   19  A    between atoms: _51  and  _52
REMARK   20  A    between atoms: _54  and  _56
REMARK   21  A    between atoms: _56  and  _57
REMARK   22  A    between atoms: _56  and  _59
REMARK   23  A    between atoms: _59  and  _60
REMARK   24  A    between atoms: _65  and  _66
REMARK   25  A    between atoms: _68  and  _70
REMARK   26  A    between atoms: _70  and  _71
REMARK   27  A    between atoms: _73  and  _75
REMARK   28  A    between atoms: _75  and  _76
REMARK   29  A    between atoms: _75  and  _78
REMARK   30  A    between atoms: _78  and  _79
REMARK   31  A    between atoms: _79  and  _80
REMARK   32  A    between atoms: _80  and  _81
REMARK   33  A    between atoms: _90  and  _92
REMARK   34  A    between atoms: _92  and  _93
REMARK   35  A    between atoms: _92  and  _95
REMARK   36  A    between atoms: _95  and  _96
REMARK   37  A    between atoms: _99  and  _101
REMARK   38  A    between atoms: _101  and  _102
REMARK   39  A    between atoms: _104  and  _106
REMARK   40  A    between atoms: _106  and  _107
REMARK   41  A    between atoms: _106  and  _109
REMARK   42  A    between atoms: _109  and  _110
REMARK   43  A    between atoms: _116  and  _118
REMARK   44  A    between atoms: _118  and  _119
REMARK   45  A    between atoms: _118  and  _121
REMARK   46  A    between atoms: _121  and  _122
REMARK   47  A    between atoms: _126  and  _127
REMARK   48  A    between atoms: _132  and  _134
REMARK   49  A    between atoms: _134  and  _135
REMARK   50  A    between atoms: _134  and  _137
REMARK   51  A    between atoms: _137  and  _138
REMARK   52  A    between atoms: _140  and  _142
REMARK   53  A    between atoms: _142  and  _143
REMARK   54  A    between atoms: _142  and  _145
REMARK   55  A    between atoms: _145  and  _146
REMARK   56  A    between atoms: _149  and  _151
REMARK   57  A    between atoms: _151  and  _152
REMARK   58  A    between atoms: _151  and  _154
REMARK   59  A    between atoms: _154  and  _155
REMARK   60  A    between atoms: _155  and  _156
REMARK   61  A    between atoms: _159  and  _161
REMARK   62  A    between atoms: _161  and  _162
REMARK   63  A    between atoms: _161  and  _164
REMARK   64  A    between atoms: _164  and  _165
REMARK   65  A    between atoms: _168  and  _170
REMARK   66  A    between atoms: _170  and  _171
REMARK   67  A    between atoms: _170  and  _173
REMARK   68  A    between atoms: _173  and  _174
REMARK   69  A    between atoms: _174  and  _175
REMARK   70  A    between atoms: _178  and  _180
REMARK   71  A    between atoms: _180  and  _181
REMARK   72  A    between atoms: _183  and  _185
REMARK   73  A    between atoms: _185  and  _186
REMARK   74  A    between atoms: _185  and  _188
REMARK   75  A    between atoms: _188  and  _189
REMARK   76  A    between atoms: _191  and  _193
REMARK   77  A    between atoms: _193  and  _194
REMARK   78  A    between atoms: _193  and  _196
REMARK   79  A    between atoms: _196  and  _197
REMARK   80  A    between atoms: _203  and  _205
REMARK   81  A    between atoms: _205  and  _206
REMARK   82  A    between atoms: _205  and  _208
REMARK   83  A    between atoms: _208  and  _209
REMARK   84  A    between atoms: _214  and  _216
REMARK   85  A    between atoms: _216  and  _217
REMARK   86  A    between atoms: _216  and  _219
REMARK   87  A    between atoms: _219  and  _220
REMARK   88  A    between atoms: _223  and  _225
REMARK   89  A    between atoms: _225  and  _226
REMARK   90  A    between atoms: _225  and  _228
REMARK   91  A    between atoms: _228  and  _229
REMARK   92  A    between atoms: _231  and  _233
REMARK   93  A    between atoms: _233  and  _234
REMARK   94  A    between atoms: _233  and  _236
REMARK   95  A    between atoms: _236  and  _237
REMARK   96  A    between atoms: _240  and  _242
REMARK   97  A    between atoms: _242  and  _243
REMARK   98  A    between atoms: _245  and  _247
REMARK   99  A    between atoms: _247  and  _248
REMARK  100  A    between atoms: _250  and  _252
REMARK  101  A    between atoms: _252  and  _253
REMARK  102  A    between atoms: _252  and  _255
REMARK  103  A    between atoms: _255  and  _256
REMARK  104  A    between atoms: _266  and  _268
REMARK  105  A    between atoms: _268  and  _269
REMARK  106  A    between atoms: _268  and  _271
REMARK  107  A    between atoms: _271  and  _272
REMARK  108  A    between atoms: _275  and  _277
REMARK  109  A    between atoms: _277  and  _278
REMARK  110  A    between atoms: _277  and  _280
REMARK  111  A    between atoms: _280  and  _281
REMARK  112  A    between atoms: _284  and  _286
REMARK  113  A    between atoms: _286  and  _287
REMARK  114  A    between atoms: _286  and  _289
REMARK  115  A    between atoms: _289  and  _290
REMARK  116  A    between atoms: _292  and  _294
REMARK  117  A    between atoms: _294  and  _295
REMARK  118  A    between atoms: _294  and  _297
REMARK  119  A    between atoms: _297  and  _298
REMARK  120  A    between atoms: _301  and  _303
REMARK  121  A    between atoms: _303  and  _304
REMARK  122  A    between atoms: _303  and  _306
REMARK  123  A    between atoms: _306  and  _307
REMARK  124  A    between atoms: _310  and  _312
REMARK  125  A    between atoms: _312  and  _313
REMARK  126  A    between atoms: _312  and  _315
REMARK  127  A    between atoms: _315  and  _316
REMARK  128  A    between atoms: _319  and  _321
REMARK  129  A    between atoms: _321  and  _322
REMARK  130  A    between atoms: _321  and  _324
REMARK  131  A    between atoms: _324  and  _325
REMARK  132  A    between atoms: _335  and  _337
REMARK  133  A    between atoms: _337  and  _338
REMARK  134  A    between atoms: _337  and  _340
REMARK  135  A    between atoms: _340  and  _341
REMARK  136  A    between atoms: _341  and  _342
REMARK  137  A    between atoms: _345  and  _347
REMARK  138  A    between atoms: _347  and  _348
REMARK  139  A    between atoms: _347  and  _350
REMARK  140  A    between atoms: _350  and  _351
REMARK  141  A    between atoms: _357  and  _359
REMARK  142  A    between atoms: _359  and  _360
REMARK  143  A    between atoms: _363  and  _365
REMARK  144  A    between atoms: _365  and  _366
REMARK  145  A    between atoms: _365  and  _368
REMARK  146  A    between atoms: _368  and  _369
REMARK  147  A    between atoms: _371  and  _373
REMARK  148  A    between atoms: _373  and  _374
REMARK  149  A    between atoms: _377  and  _379
REMARK  150  A    between atoms: _379  and  _380
REMARK  151  A    between atoms: _379  and  _382
REMARK  152  A    between atoms: _382  and  _383
REMARK  153  A    between atoms: _386  and  _388
REMARK  154  A    between atoms: _388  and  _389
REMARK  155  A    between atoms: _388  and  _391
REMARK  156  A    between atoms: _391  and  _392
REMARK  157  A    between atoms: _398  and  _400
REMARK  158  A    between atoms: _400  and  _401
REMARK  159  A    between atoms: _400  and  _403
REMARK  160  A    between atoms: _403  and  _404
REMARK  161  A    between atoms: _404  and  _405
REMARK  162  A    between atoms: _407  and  _409
REMARK  163  A    between atoms: _409  and  _410
REMARK  164  A    between atoms: _409  and  _412
REMARK  165  A    between atoms: _412  and  _413
REMARK  166  A    between atoms: _418  and  _419
REMARK  167  A    between atoms: _421  and  _423
REMARK  168  A    between atoms: _423  and  _424
REMARK  169  A    between atoms: _423  and  _426
REMARK  170  A    between atoms: _426  and  _427
REMARK  171  A    between atoms: _430  and  _432
REMARK  172  A    between atoms: _432  and  _433
REMARK  173  A    between atoms: _432  and  _435
REMARK  174  A    between atoms: _435  and  _436
REMARK  175  A    between atoms: _442  and  _444
REMARK  176  A    between atoms: _444  and  _445
REMARK  177  A    between atoms: _444  and  _447
REMARK  178  A    between atoms: _447  and  _448
REMARK  179  A    between atoms: _448  and  _449
REMARK  180  A    between atoms: _454  and  _456
REMARK  181  A    between atoms: _456  and  _457
REMARK  182  A    between atoms: _456  and  _459
REMARK  183  A    between atoms: _459  and  _460
REMARK  184  A    between atoms: _463  and  _465
REMARK  185  A    between atoms: _465  and  _466
REMARK  186  A    between atoms: _469  and  _471
REMARK  187  A    between atoms: _471  and  _472
REMARK  188  A    between atoms: _471  and  _474
REMARK  189  A    between atoms: _474  and  _475
REMARK  190  A    between atoms: _475  and  _476
REMARK  191  A    between atoms: _478  and  _480
REMARK  192  A    between atoms: _480  and  _481
REMARK  193  A    between atoms: _480  and  _483
REMARK  194  A    between atoms: _483  and  _484
REMARK  195  A    between atoms: _489  and  _490
REMARK  196  A    between atoms: _492  and  _494
REMARK  197  A    between atoms: _494  and  _495
REMARK  198  A    between atoms: _497  and  _499
REMARK  199  A    between atoms: _499  and  _500
REMARK  200  A    between atoms: _499  and  _502
REMARK  201  A    between atoms: _502  and  _503
REMARK  202  A    between atoms: _503  and  _504
REMARK  203  A    between atoms: _504  and  _505
REMARK  204  A    between atoms: _514  and  _516
REMARK  205  A    between atoms: _516  and  _517
REMARK  206  A    between atoms: _516  and  _519
REMARK  207  A    between atoms: _519  and  _520
REMARK  208  A    between atoms: _530  and  _532
REMARK  209  A    between atoms: _532  and  _533
REMARK  210  A    between atoms: _532  and  _535
REMARK  211  A    between atoms: _535  and  _536
REMARK  212  A    between atoms: _536  and  _537
REMARK  213  A    between atoms: _540  and  _542
REMARK  214  A    between atoms: _542  and  _543
REMARK  215  A    between atoms: _542  and  _545
REMARK  216  A    between atoms: _545  and  _546
REMARK  217  A    between atoms: _551  and  _553
REMARK  218  A    between atoms: _553  and  _554
REMARK  219  A    between atoms: _556  and  _558
REMARK  220  A    between atoms: _558  and  _559
REMARK  221  A    between atoms: _558  and  _561
REMARK  222  A    between atoms: _561  and  _562
REMARK  223  A    between atoms: _565  and  _567
REMARK  224  A    between atoms: _567  and  _568
REMARK  225  A    between atoms: _567  and  _570
REMARK  226  A    between atoms: _573  and  _575
REMARK  227  A    between atoms: _575  and  _576
REMARK  228  A    between atoms: _575  and  _578
REMARK  229  A    between atoms: _578  and  _579
REMARK  230  A    between atoms: _582  and  _584
REMARK  231  A    between atoms: _584  and  _585
REMARK  232  A    between atoms: _584  and  _587
REMARK  233  A    between atoms: _587  and  _588
REMARK  234  A    between atoms: _594  and  _596
REMARK  235  A    between atoms: _596  and  _597
REMARK  236  A    between atoms: _596  and  _599
REMARK  237  A    between atoms: _599  and  _600
REMARK  238  A    between atoms: _602  and  _604
REMARK  239  A    between atoms: _604  and  _605
REMARK  240  A    between atoms: _604  and  _607
REMARK  241  A    between atoms: _607  and  _608
REMARK  242  A    between atoms: _618  and  _620
REMARK  243  A    between atoms: _620  and  _621
REMARK  244  A    between atoms: _620  and  _623
REMARK  245  A    between atoms: _623  and  _624
REMARK  246  A    between atoms: _624  and  _625
REMARK  247  A    between atoms: _628  and  _630
REMARK  248  A    between atoms: _630  and  _631
REMARK  249  A    between atoms: _630  and  _633
REMARK  250  A    between atoms: _633  and  _634
REMARK  251  A    between atoms: _637  and  _639
REMARK  252  A    between atoms: _639  and  _640
REMARK                            x       y       z     vdW  Elec       q    Type
REMARK                         _______ _______ _______ _____ _____    ______ ____
ROOT
ATOM      1  C   SER A   1      25.642  62.724  -7.389  0.00  0.00    +0.241 C 
ATOM      2  N   LEU A   2      26.773  62.037  -7.529  0.00  0.00    -0.298 N 
ATOM      3  H   LEU A   2      26.927  61.172  -6.973  0.00  0.00    +0.150 HD
ATOM      4  O   SER A   1      25.466  63.809  -7.969  0.00  0.00    -0.274 OA
ENDROOT
BRANCH   1   5
ATOM      5  CA  SER A   1      24.559  62.162  -6.463  0.00  0.00    +0.174 C 
BRANCH   5   6
ATOM      6  N   SER A   1      24.631  60.700  -6.293  0.00  0.00    -0.236 NA
ATOM      7  H   SER A   1      24.781  60.287  -5.350  0.00  0.00    +0.142 HD
ENDBRANCH   5   6
BRANCH   5   8
ATOM      8  CB  SER A   1      24.555  62.916  -5.122  0.00  0.00    +0.163 C 
BRANCH   8   9
ATOM      9  OG  SER A   1      23.456  62.475  -4.319  0.00  0.00    -0.380 OA
ATOM     10  H   SER A   1      23.543  61.504  -4.148  0.00  0.00    +0.211 HD
ENDBRANCH   8   9
ENDBRANCH   5   8
ENDBRANCH   1   5
BRANCH   2  11
ATOM     11  CA  LEU A   2      27.811  62.500  -8.473  0.00  0.00    +0.137 C 
BRANCH  11  12
ATOM     12  C   LEU A   2      27.378  62.471  -9.903  0.00  0.00    +0.227 C 
ATOM     13  O   LEU A   2      27.974  63.164 -10.735  0.00  0.00    -0.286 OA
ENDBRANCH  11  12
BRANCH  11  14
ATOM     14  CB  LEU A   2      29.069  61.624  -8.440  0.00  0.00    +0.028 C 
BRANCH  14  15
ATOM     15  CG  LEU A   2      29.970  61.977  -7.294  0.00  0.00    +0.002 C 
ATOM     16  CD2 LEU A   2      30.400  63.479  -7.322  0.00  0.00    +0.000 C 
ATOM     17  CD1 LEU A   2      31.237  61.061  -7.345  0.00  0.00    +0.000 C 
ENDBRANCH  14  15
ENDBRANCH  11  14
ENDBRANCH   2  11
TORSDOF 8
REMARK  Name = ../refined-set-2016/2wm0/2wm0_pocket.pdb
REMARK  252 active torsions:
REMARK  status: ('A' for Active; 'I' for Inactive)
REMARK    1  A    between atoms: _1  and  _3
REMARK    2  A    between atoms: _3  and  _4
REMARK    3  A    between atoms: _3  and  _6
REMARK    4  A    between atoms: _6  and  _7
REMARK    5  A    between atoms: _12  and  _13
REMARK    6  A    between atoms: _15  and  _17
REMARK    7  A    between atoms: _17  and  _18
REMARK    8  A    between atoms: _17  and  _20
REMARK    9  A    between atoms: _23  and  _25
REMARK   10  A    between atoms: _25  and  _26
REMARK   11  A    between atoms: _25  and  _28
REMARK   12  A    between atoms: _28  and  _29
REMARK   13  A    between atoms: _29  and  _30
REMARK   14  A    between atoms: _33  and  _35
REMARK   15  A    between atoms: _35  and  _36
REMARK   16  A    between atoms: _35  and  _38
REMARK   17  A    between atoms: _38  and  _39
REMARK   18  A    between atoms: _49  and  _51
REMARK   19  A    between atoms: _51  and  _52
REMARK   20  A    between atoms: _54  and  _56
REMARK   21  A    between atoms: _56  and  _57
REMARK   22  A    between atoms: _56  and  _59
REMARK   23  A    between atoms: _59  and  _60
REMARK   24  A    between atoms: _65  and  _66
REMARK   25  A    between atoms: _68  and  _70
REMARK   26  A    between atoms: _70  and  _71
REMARK   27  A    between atoms: _73  and  _75
REMARK   28  A    between atoms: _75  and  _76
REMARK   29  A    between atoms: _75  and  _78
REMARK   30  A    between atoms: _78  and  _79
REMARK   31  A    between atoms: _79  and  _80
REMARK   32  A    between atoms: _80  and  _81
REMARK   33  A    between atoms: _90  and  _92
REMARK   34  A    between atoms: _92  and  _93
REMARK   35  A    between atoms: _92  and  _95
REMARK   36  A    between atoms: _95  and  _96
REMARK   37  A    between atoms: _99  and  _101
REMARK   38  A    between atoms: _101  and  _102
REMARK   39  A    between atoms: _104  and  _106
REMARK   40  A    between atoms: _106  and  _107
REMARK   41  A    between atoms: _106  and  _109
REMARK   42  A    between atoms: _109  and  _110
REMARK   43  A    between atoms: _116  and  _118
REMARK   44  A    between atoms: _118  and  _119
REMARK   45  A    between atoms: _118  and  _121
REMARK   46  A    between atoms: _121  and  _122
REMARK   47  A    between atoms: _126  and  _127
REMARK   48  A    between atoms: _132  and  _134
REMARK   49  A    between atoms: _134  and  _135
REMARK   50  A    between atoms: _134  and  _137
REMARK   51  A    between atoms: _137  and  _138
REMARK   52  A    between atoms: _140  and  _142
REMARK   53  A    between atoms: _142  and  _143
REMARK   54  A    between atoms: _142  and  _145
REMARK   55  A    between atoms: _145  and  _146
REMARK   56  A    between atoms: _149  and  _151
REMARK   57  A    between atoms: _151  and  _152
REMARK   58  A    between atoms: _151  and  _154
REMARK   59  A    between atoms: _154  and  _155
REMARK   60  A    between atoms: _155  and  _156
REMARK   61  A    between atoms: _159  and  _161
REMARK   62  A    between atoms: _161  and  _162
REMARK   63  A    between atoms: _161  and  _164
REMARK   64  A    between atoms: _164  and  _165
REMARK   65  A    between atoms: _168  and  _170
REMARK   66  A    between atoms: _170  and  _171
REMARK   67  A    between atoms: _170  and  _173
REMARK   68  A    between atoms: _173  and  _174
REMARK   69  A    between atoms: _174  and  _175
REMARK   70  A    between atoms: _178  and  _180
REMARK   71  A    between atoms: _180  and  _181
REMARK   72  A    between atoms: _183  and  _185
REMARK   73  A    between atoms: _185  and  _186
REMARK   74  A    between atoms: _185  and  _188
REMARK   75  A    between atoms: _188  and  _189
REMARK   76  A    between atoms: _191  and  _193
REMARK   77  A    between atoms: _193  and  _194
REMARK   78  A    between atoms: _193  and  _196
REMARK   79  A    between atoms: _196  and  _197
REMARK   80  A    between atoms: _203  and  _205
REMARK   81  A    between atoms: _205  and  _206
REMARK   82  A    between atoms: _205  and  _208
REMARK   83  A    between atoms: _208  and  _209
REMARK   84  A    between atoms: _214  and  _216
REMARK   85  A    between atoms: _216  and  _217
REMARK   86  A    between atoms: _216  and  _219
REMARK   87  A    between atoms: _219  and  _220
REMARK   88  A    between atoms: _223  and  _225
REMARK   89  A    between atoms: _225  and  _226
REMARK   90  A    between atoms: _225  and  _228
REMARK   91  A    between atoms: _228  and  _229
REMARK   92  A    between atoms: _231  and  _233
REMARK   93  A    between atoms: _233  and  _234
REMARK   94  A    between atoms: _233  and  _236
REMARK   95  A    between atoms: _236  and  _237
REMARK   96  A    between atoms: _240  and  _242
REMARK   97  A    between atoms: _242  and  _243
REMARK   98  A    between atoms: _245  and  _247
REMARK   99  A    between atoms: _247  and  _248
REMARK  100  A    between atoms: _250  and  _252
REMARK  101  A    between atoms: _252  and  _253
REMARK  102  A    between atoms: _252  and  _255
REMARK  103  A    between atoms: _255  and  _256
REMARK  104  A    between atoms: _266  and  _268
REMARK  105  A    between atoms: _268  and  _269
REMARK  106  A    between atoms: _268  and  _271
REMARK  107  A    between atoms: _271  and  _272
REMARK  108  A    between atoms: _275  and  _277
REMARK  109  A    between atoms: _277  and  _278
REMARK  110  A    between atoms: _277  and  _280
REMARK  111  A    between atoms: _280  and  _281
REMARK  112  A    between atoms: _284  and  _286
REMARK  113  A    between atoms: _286  and  _287
REMARK  114  A    between atoms: _286  and  _289
REMARK  115  A    between atoms: _289  and  _290
REMARK  116  A    between atoms: _292  and  _294
REMARK  117  A    between atoms: _294  and  _295
REMARK  118  A    between atoms: _294  and  _297
REMARK  119  A    between atoms: _297  and  _298
REMARK  120  A    between atoms: _301  and  _303
REMARK  121  A    between atoms: _303  and  _304
REMARK  122  A    between atoms: _303  and  _306
REMARK  123  A    between atoms: _306  and  _307
REMARK  124  A    between atoms: _310  and  _312
REMARK  125  A    between atoms: _312  and  _313
REMARK  126  A    between atoms: _312  and  _315
REMARK  127  A    between atoms: _315  and  _316
REMARK  128  A    between atoms: _319  and  _321
REMARK  129  A    between atoms: _321  and  _322
REMARK  130  A    between atoms: _321  and  _324
REMARK  131  A    between atoms: _324  and  _325
REMARK  132  A    between atoms: _335  and  _337
REMARK  133  A    between atoms: _337  and  _338
REMARK  134  A    between atoms: _337  and  _340
REMARK  135  A    between atoms: _340  and  _341
REMARK  136  A    between atoms: _341  and  _342
REMARK  137  A    between atoms: _345  and  _347
REMARK  138  A    between atoms: _347  and  _348
REMARK  139  A    between atoms: _347  and  _350
REMARK  140  A    between atoms: _350  and  _351
REMARK  141  A    between atoms: _357  and  _359
REMARK  142  A    between atoms: _359  and  _360
REMARK  143  A    between atoms: _363  and  _365
REMARK  144  A    between atoms: _365  and  _366
REMARK  145  A    between atoms: _365  and  _368
REMARK  146  A    between atoms: _368  and  _369
REMARK  147  A    between atoms: _371  and  _373
REMARK  148  A    between atoms: _373  and  _374
REMARK  149  A    between atoms: _377  and  _379
REMARK  150  A    between atoms: _379  and  _380
REMARK  151  A    between atoms: _379  and  _382
REMARK  152  A    between atoms: _382  and  _383
REMARK  153  A    between atoms: _386  and  _388
REMARK  154  A    between atoms: _388  and  _389
REMARK  155  A    between atoms: _388  and  _391
REMARK  156  A    between atoms: _391  and  _392
REMARK  157  A    between atoms: _398  and  _400
REMARK  158  A    between atoms: _400  and  _401
REMARK  159  A    between atoms: _400  and  _403
REMARK  160  A    between atoms: _403  and  _404
REMARK  161  A    between atoms: _404  and  _405
REMARK  162  A    between atoms: _407  and  _409
REMARK  163  A    between atoms: _409  and  _410
REMARK  164  A    between atoms: _409  and  _412
REMARK  165  A    between atoms: _412  and  _413
REMARK  166  A    between atoms: _418  and  _419
REMARK  167  A    between atoms: _421  and  _423
REMARK  168  A    between atoms: _423  and  _424
REMARK  169  A    between atoms: _423  and  _426
REMARK  170  A    between atoms: _426  and  _427
REMARK  171  A    between atoms: _430  and  _432
REMARK  172  A    between atoms: _432  and  _433
REMARK  173  A    between atoms: _432  and  _435
REMARK  174  A    between atoms: _435  and  _436
REMARK  175  A    between atoms: _442  and  _444
REMARK  176  A    between atoms: _444  and  _445
REMARK  177  A    between atoms: _444  and  _447
REMARK  178  A    between atoms: _447  and  _448
REMARK  179  A    between atoms: _448  and  _449
REMARK  180  A    between atoms: _454  and  _456
REMARK  181  A    between atoms: _456  and  _457
REMARK  182  A    between atoms: _456  and  _459
REMARK  183  A    between atoms: _459  and  _460
REMARK  184  A    between atoms: _463  and  _465
REMARK  185  A    between atoms: _465  and  _466
REMARK  186  A    between atoms: _469  and  _471
REMARK  187  A    between atoms: _471  and  _472
REMARK  188  A    between atoms: _471  and  _474
REMARK  189  A    between atoms: _474  and  _475
REMARK  190  A    between atoms: _475  and  _476
REMARK  191  A    between atoms: _478  and  _480
REMARK  192  A    between atoms: _480  and  _481
REMARK  193  A    between atoms: _480  and  _483
REMARK  194  A    between atoms: _483  and  _484
REMARK  195  A    between atoms: _489  and  _490
REMARK  196  A    between atoms: _492  and  _494
REMARK  197  A    between atoms: _494  and  _495
REMARK  198  A    between atoms: _497  and  _499
REMARK  199  A    between atoms: _499  and  _500
REMARK  200  A    between atoms: _499  and  _502
REMARK  201  A    between atoms: _502  and  _503
REMARK  202  A    between atoms: _503  and  _504
REMARK  203  A    between atoms: _504  and  _505
REMARK  204  A    between atoms: _514  and  _516
REMARK  205  A    between atoms: _516  and  _517
REMARK  206  A    between atoms: _516  and  _519
REMARK  207  A    between atoms: _519  and  _520
REMARK  208  A    between atoms: _530  and  _532
REMARK  209  A    between atoms: _532  and  _533
REMARK  210  A    between atoms: _532  and  _535
REMARK  211  A    between atoms: _535  and  _536
REMARK  212  A    between atoms: _536  and  _537
REMARK  213  A    between atoms: _540  and  _542
REMARK  214  A    between atoms: _542  and  _543
REMARK  215  A    between atoms: _542  and  _545
REMARK  216  A    between atoms: _545  and  _546
REMARK  217  A    between atoms: _551  and  _553
REMARK  218  A    between atoms: _553  and  _554
REMARK  219  A    between atoms: _556  and  _558
REMARK  220  A    between atoms: _558  and  _559
REMARK  221  A    between atoms: _558  and  _561
REMARK  222  A    between atoms: _561  and  _562
REMARK  223  A    between atoms: _565  and  _567
REMARK  224  A    between atoms: _567  and  _568
REMARK  225  A    between atoms: _567  and  _570
REMARK  226  A    between atoms: _573  and  _575
REMARK  227  A    between atoms: _575  and  _576
REMARK  228  A    between atoms: _575  and  _578
REMARK  229  A    between atoms: _578  and  _579
REMARK  230  A    between atoms: _582  and  _584
REMARK  231  A    between atoms: _584  and  _585
REMARK  232  A    between atoms: _584  and  _587
REMARK  233  A    between atoms: _587  and  _588
REMARK  234  A    between atoms: _594  and  _596
REMARK  235  A    between atoms: _596  and  _597
REMARK  236  A    between atoms: _596  and  _599
REMARK  237  A    between atoms: _599  and  _600
REMARK  238  A    between atoms: _602  and  _604
REMARK  239  A    between atoms: _604  and  _605
REMARK  240  A    between atoms: _604  and  _607
REMARK  241  A    between atoms: _607  and  _608
REMARK  242  A    between atoms: _618  and  _620
REMARK  243  A    between atoms: _620  and  _621
REMARK  244  A    between atoms: _620  and  _623
REMARK  245  A    between atoms: _623  and  _624
REMARK  246  A    between atoms: _624  and  _625
REMARK  247  A    between atoms: _628  and  _630
REMARK  248  A    between atoms: _630  and  _631
REMARK  249  A    between atoms: _630  and  _633
REMARK  250  A    between atoms: _633  and  _634
REMARK  251  A    between atoms: _637  and  _639
REMARK  252  A    between atoms: _639  and  _640
REMARK                            x       y       z     vdW  Elec       q    Type
REMARK                         _______ _______ _______ _____ _____    ______ ____
ROOT
ATOM      1  CA  GLU A   3      29.164  65.115 -16.286  0.00  0.00    +0.149 C 
ENDROOT
BRANCH   1   4
ATOM      2  C   ILE A   2      28.534  65.414 -13.953  0.00  0.00    +0.241 C 
ATOM      3  O   ILE A   2      29.059  64.338 -13.619  0.00  0.00    -0.273 OA
ATOM      4  N   GLU A   3      28.568  65.883 -15.204  0.00  0.00    -0.297 N 
ATOM      5  H   GLU A   3      28.159  66.817 -15.408  0.00  0.00    +0.150 HD
BRANCH   2   6
ATOM      6  CA  ILE A   2      27.814  66.274 -12.940  0.00  0.00    +0.148 C 
BRANCH   6   8
ATOM      7  C   GLU A   1      25.455  65.754 -12.594  0.00  0.00    +0.238 C 
ATOM      8  N   ILE A   2      26.738  65.483 -12.353  0.00  0.00    -0.297 N 
ATOM      9  H   ILE A   2      26.978  64.686 -11.730  0.00  0.00    +0.150 HD
ATOM     10  O   GLU A   1      25.098  66.708 -13.257  0.00  0.00    -0.274 OA
BRANCH   7  11
ATOM     11  CA  GLU A   1      24.401  64.839 -11.989  0.00  0.00    +0.145 C 
BRANCH  11  12
ATOM     12  N   GLU A   1      24.977  63.585 -11.453  0.00  0.00    -0.238 NA
ATOM     13  H   GLU A   1      25.047  63.461 -10.423  0.00  0.00    +0.142 HD
ENDBRANCH  11  12
BRANCH  11  14
ATOM     14  CB  GLU A   1      23.590  65.631 -10.932  0.00  0.00    +0.038 C 
BRANCH  14  15
ATOM     15  CG  GLU A   1      22.509  64.813 -10.182  0.00  0.00    +0.116 C 
BRANCH  15  16
ATOM     16  CD  GLU A   1      21.254  64.481 -11.033  0.00  0.00    +0.365 C 
ATOM     17  OE2 GLU A   1      20.352  65.351 -11.171  0.00  0.00    -0.246 OA
ATOM     18  OE1 GLU A   1      21.172  63.330 -11.546  0.00  0.00    -0.246 OA
ENDBRANCH  15  16
ENDBRANCH  14  15
ENDBRANCH  11  14
ENDBRANCH   7  11
ENDBRANCH   6   8
BRANCH   6  19
ATOM     19  CB  ILE A   2      28.802  66.701 -11.857  0.00  0.00    +0.027 C 
ATOM     20  CG2 ILE A   2      29.993  67.460 -12.461  0.00  0.00    +0.002 C 
BRANCH  19  21
ATOM     21  CG1 ILE A   2      28.086  67.569 -10.831  0.00  0.00    +0.002 C 
ATOM     22  CD1 ILE A   2      28.412  67.145  -9.418  0.00  0.00    +0.000 C 
ENDBRANCH  19  21
ENDBRANCH   6  19
ENDBRANCH   2   6
ENDBRANCH   1   4
BRANCH   1  23
ATOM     23  C   GLU A   3      30.569  64.640 -15.941  0.00  0.00    +0.241 C 
ATOM     24  O   GLU A   3      31.417  65.427 -15.501  0.00  0.00    -0.273 OA
ATOM     25  N   GLY A   4      30.803  63.344 -16.149  0.00  0.00    -0.295 N 
ATOM     26  H   GLY A   4      30.021  62.746 -16.486  0.00  0.00    +0.150 HD
BRANCH  25  27
ATOM     27  CA  GLY A   4      32.105  62.726 -15.926  0.00  0.00    +0.176 C 
BRANCH  27  28
ATOM     28  C   GLY A   4      32.524  62.519 -14.449  0.00  0.00    +0.243 C 
ATOM     29  N   SER A   5      31.776  63.075 -13.504  0.00  0.00    -0.295 N 
ATOM     30  H   SER A   5      30.852  63.488 -13.742  0.00  0.00    +0.150 HD
ATOM     31  O   GLY A   4      33.524  61.858 -14.184  0.00  0.00    -0.273 OA
BRANCH  29  32
ATOM     32  CA  SER A   5      32.270  63.103 -12.101  0.00  0.00    +0.178 C 
BRANCH  32  33
ATOM     33  C   SER A   5      32.219  61.730 -11.444  0.00  0.00    +0.243 C 
ATOM     34  O   SER A   5      33.130  61.342 -10.741  0.00  0.00    -0.273 OA
ATOM     35  N   PHE A   6      31.112  61.013 -11.663  0.00  0.00    -0.298 N 
ATOM     36  H   PHE A   6      30.355  61.412 -12.253  0.00  0.00    +0.150 HD
BRANCH  35  37
ATOM     37  CA  PHE A   6      30.945  59.683 -11.091  0.00  0.00    +0.141 C 
BRANCH  37  38
ATOM     38  C   PHE A   6      31.947  58.754 -11.705  0.00  0.00    +0.227 C 
ATOM     39  O   PHE A   6      32.584  57.947 -10.989  0.00  0.00    -0.286 OA
ENDBRANCH  37  38
BRANCH  37  40
ATOM     40  CB  PHE A   6      29.514  59.197 -11.319  0.00  0.00    +0.054 C 
BRANCH  40  41
ATOM     41  CG  PHE A   6      29.283  57.769 -10.854  0.00  0.00    -0.020 A 
ATOM     42  CD2 PHE A   6      28.838  57.531  -9.544  0.00  0.00    -0.004 A 
ATOM     43  CE2 PHE A   6      28.563  56.191  -9.120  0.00  0.00    -0.000 A 
ATOM     44  CZ  PHE A   6      28.762  55.128 -10.010  0.00  0.00    -0.000 A 
ATOM     45  CE1 PHE A   6      29.219  55.362 -11.324  0.00  0.00    -0.000 A 
ATOM     46  CD1 PHE A   6      29.469  56.701 -11.729  0.00  0.00    -0.004 A 
ENDBRANCH  40  41
ENDBRANCH  37  40
ENDBRANCH  35  37
ENDBRANCH  32  33
BRANCH  32  47
ATOM     47  CB  SER A   5      31.448  64.090 -11.291  0.00  0.00    +0.166 C 
BRANCH  47  48
ATOM     48  OG  SER A   5      31.976  64.209  -9.982  0.00  0.00    -0.380 OA
ATOM     49  H   SER A   5      32.911  64.530 -10.033  0.00  0.00    +0.211 HD
ENDBRANCH  47  48
ENDBRANCH  32  47
ENDBRANCH  29  32
ENDBRANCH  27  28
ENDBRANCH  25  27
ENDBRANCH   1  23
BRANCH   1  50
ATOM     50  CB  GLU A   3      29.225  65.953 -17.556  0.00  0.00    +0.041 C 
BRANCH  50  51
ATOM     51  CG  GLU A   3      29.623  65.162 -18.786  0.00  0.00    +0.116 C 
BRANCH  51  52
ATOM     52  CD  GLU A   3      29.044  65.807 -20.046  0.00  0.00    +0.365 C 
ATOM     53  OE2 GLU A   3      29.632  66.831 -20.494  0.00  0.00    -0.246 OA
ATOM     54  OE1 GLU A   3      27.980  65.317 -20.544  0.00  0.00    -0.246 OA
ENDBRANCH  51  52
ENDBRANCH  50  51
ENDBRANCH   1  50
TORSDOF 24
REMARK  Name = ../refined-set-2016/2wm0/2wm0_pocket.pdb
REMARK  252 active torsions:
REMARK  status: ('A' for Active; 'I' for Inactive)
REMARK    1  A    between atoms: _1  and  _3
REMARK    2  A    between atoms: _3  and  _4
REMARK    3  A    between atoms: _3  and  _6
REMARK    4  A    between atoms: _6  and  _7
REMARK    5  A    between atoms: _12  and  _13
REMARK    6  A    between atoms: _15  and  _17
REMARK    7  A    between atoms: _17  and  _18
REMARK    8  A    between atoms: _17  and  _20
REMARK    9  A    between atoms: _23  and  _25
REMARK   10  A    between atoms: _25  and  _26
REMARK   11  A    between atoms: _25  and  _28
REMARK   12  A    between atoms: _28  and  _29
REMARK   13  A    between atoms: _29  and  _30
REMARK   14  A    between atoms: _33  and  _35
REMARK   15  A    between atoms: _35  and  _36
REMARK   16  A    between atoms: _35  and  _38
REMARK   17  A    between atoms: _38  and  _39
REMARK   18  A    between atoms: _49  and  _51
REMARK   19  A    between atoms: _51  and  _52
REMARK   20  A    between atoms: _54  and  _56
REMARK   21  A    between atoms: _56  and  _57
REMARK   22  A    between atoms: _56  and  _59
REMARK   23  A    between atoms: _59  and  _60
REMARK   24  A    between atoms: _65  and  _66
REMARK   25  A    between atoms: _68  and  _70
REMARK   26  A    between atoms: _70  and  _71
REMARK   27  A    between atoms: _73  and  _75
REMARK   28  A    between atoms: _75  and  _76
REMARK   29  A    between atoms: _75  and  _78
REMARK   30  A    between atoms: _78  and  _79
REMARK   31  A    between atoms: _79  and  _80
REMARK   32  A    between atoms: _80  and  _81
REMARK   33  A    between atoms: _90  and  _92
REMARK   34  A    between atoms: _92  and  _93
REMARK   35  A    between atoms: _92  and  _95
REMARK   36  A    between atoms: _95  and  _96
REMARK   37  A    between atoms: _99  and  _101
REMARK   38  A    between atoms: _101  and  _102
REMARK   39  A    between atoms: _104  and  _106
REMARK   40  A    between atoms: _106  and  _107
REMARK   41  A    between atoms: _106  and  _109
REMARK   42  A    between atoms: _109  and  _110
REMARK   43  A    between atoms: _116  and  _118
REMARK   44  A    between atoms: _118  and  _119
REMARK   45  A    between atoms: _118  and  _121
REMARK   46  A    between atoms: _121  and  _122
REMARK   47  A    between atoms: _126  and  _127
REMARK   48  A    between atoms: _132  and  _134
REMARK   49  A    between atoms: _134  and  _135
REMARK   50  A    between atoms: _134  and  _137
REMARK   51  A    between atoms: _137  and  _138
REMARK   52  A    between atoms: _140  and  _142
REMARK   53  A    between atoms: _142  and  _143
REMARK   54  A    between atoms: _142  and  _145
REMARK   55  A    between atoms: _145  and  _146
REMARK   56  A    between atoms: _149  and  _151
REMARK   57  A    between atoms: _151  and  _152
REMARK   58  A    between atoms: _151  and  _154
REMARK   59  A    between atoms: _154  and  _155
REMARK   60  A    between atoms: _155  and  _156
REMARK   61  A    between atoms: _159  and  _161
REMARK   62  A    between atoms: _161  and  _162
REMARK   63  A    between atoms: _161  and  _164
REMARK   64  A    between atoms: _164  and  _165
REMARK   65  A    between atoms: _168  and  _170
REMARK   66  A    between atoms: _170  and  _171
REMARK   67  A    between atoms: _170  and  _173
REMARK   68  A    between atoms: _173  and  _174
REMARK   69  A    between atoms: _174  and  _175
REMARK   70  A    between atoms: _178  and  _180
REMARK   71  A    between atoms: _180  and  _181
REMARK   72  A    between atoms: _183  and  _185
REMARK   73  A    between atoms: _185  and  _186
REMARK   74  A    between atoms: _185  and  _188
REMARK   75  A    between atoms: _188  and  _189
REMARK   76  A    between atoms: _191  and  _193
REMARK   77  A    between atoms: _193  and  _194
REMARK   78  A    between atoms: _193  and  _196
REMARK   79  A    between atoms: _196  and  _197
REMARK   80  A    between atoms: _203  and  _205
REMARK   81  A    between atoms: _205  and  _206
REMARK   82  A    between atoms: _205  and  _208
REMARK   83  A    between atoms: _208  and  _209
REMARK   84  A    between atoms: _214  and  _216
REMARK   85  A    between atoms: _216  and  _217
REMARK   86  A    between atoms: _216  and  _219
REMARK   87  A    between atoms: _219  and  _220
REMARK   88  A    between atoms: _223  and  _225
REMARK   89  A    between atoms: _225  and  _226
REMARK   90  A    between atoms: _225  and  _228
REMARK   91  A    between atoms: _228  and  _229
REMARK   92  A    between atoms: _231  and  _233
REMARK   93  A    between atoms: _233  and  _234
REMARK   94  A    between atoms: _233  and  _236
REMARK   95  A    between atoms: _236  and  _237
REMARK   96  A    between atoms: _240  and  _242
REMARK   97  A    between atoms: _242  and  _243
REMARK   98  A    between atoms: _245  and  _247
REMARK   99  A    between atoms: _247  and  _248
REMARK  100  A    between atoms: _250  and  _252
REMARK  101  A    between atoms: _252  and  _253
REMARK  102  A    between atoms: _252  and  _255
REMARK  103  A    between atoms: _255  and  _256
REMARK  104  A    between atoms: _266  and  _268
REMARK  105  A    between atoms: _268  and  _269
REMARK  106  A    between atoms: _268  and  _271
REMARK  107  A    between atoms: _271  and  _272
REMARK  108  A    between atoms: _275  and  _277
REMARK  109  A    between atoms: _277  and  _278
REMARK  110  A    between atoms: _277  and  _280
REMARK  111  A    between atoms: _280  and  _281
REMARK  112  A    between atoms: _284  and  _286
REMARK  113  A    between atoms: _286  and  _287
REMARK  114  A    between atoms: _286  and  _289
REMARK  115  A    between atoms: _289  and  _290
REMARK  116  A    between atoms: _292  and  _294
REMARK  117  A    between atoms: _294  and  _295
REMARK  118  A    between atoms: _294  and  _297
REMARK  119  A    between atoms: _297  and  _298
REMARK  120  A    between atoms: _301  and  _303
REMARK  121  A    between atoms: _303  and  _304
REMARK  122  A    between atoms: _303  and  _306
REMARK  123  A    between atoms: _306  and  _307
REMARK  124  A    between atoms: _310  and  _312
REMARK  125  A    between atoms: _312  and  _313
REMARK  126  A    between atoms: _312  and  _315
REMARK  127  A    between atoms: _315  and  _316
REMARK  128  A    between atoms: _319  and  _321
REMARK  129  A    between atoms: _321  and  _322
REMARK  130  A    between atoms: _321  and  _324
REMARK  131  A    between atoms: _324  and  _325
REMARK  132  A    between atoms: _335  and  _337
REMARK  133  A    between atoms: _337  and  _338
REMARK  134  A    between atoms: _337  and  _340
REMARK  135  A    between atoms: _340  and  _341
REMARK  136  A    between atoms: _341  and  _342
REMARK  137  A    between atoms: _345  and  _347
REMARK  138  A    between atoms: _347  and  _348
REMARK  139  A    between atoms: _347  and  _350
REMARK  140  A    between atoms: _350  and  _351
REMARK  141  A    between atoms: _357  and  _359
REMARK  142  A    between atoms: _359  and  _360
REMARK  143  A    between atoms: _363  and  _365
REMARK  144  A    between atoms: _365  and  _366
REMARK  145  A    between atoms: _365  and  _368
REMARK  146  A    between atoms: _368  and  _369
REMARK  147  A    between atoms: _371  and  _373
REMARK  148  A    between atoms: _373  and  _374
REMARK  149  A    between atoms: _377  and  _379
REMARK  150  A    between atoms: _379  and  _380
REMARK  151  A    between atoms: _379  and  _382
REMARK  152  A    between atoms: _382  and  _383
REMARK  153  A    between atoms: _386  and  _388
REMARK  154  A    between atoms: _388  and  _389
REMARK  155  A    between atoms: _388  and  _391
REMARK  156  A    between atoms: _391  and  _392
REMARK  157  A    between atoms: _398  and  _400
REMARK  158  A    between atoms: _400  and  _401
REMARK  159  A    between atoms: _400  and  _403
REMARK  160  A    between atoms: _403  and  _404
REMARK  161  A    between atoms: _404  and  _405
REMARK  162  A    between atoms: _407  and  _409
REMARK  163  A    between atoms: _409  and  _410
REMARK  164  A    between atoms: _409  and  _412
REMARK  165  A    between atoms: _412  and  _413
REMARK  166  A    between atoms: _418  and  _419
REMARK  167  A    between atoms: _421  and  _423
REMARK  168  A    between atoms: _423  and  _424
REMARK  169  A    between atoms: _423  and  _426
REMARK  170  A    between atoms: _426  and  _427
REMARK  171  A    between atoms: _430  and  _432
REMARK  172  A    between atoms: _432  and  _433
REMARK  173  A    between atoms: _432  and  _435
REMARK  174  A    between atoms: _435  and  _436
REMARK  175  A    between atoms: _442  and  _444
REMARK  176  A    between atoms: _444  and  _445
REMARK  177  A    between atoms: _444  and  _447
REMARK  178  A    between atoms: _447  and  _448
REMARK  179  A    between atoms: _448  and  _449
REMARK  180  A    between atoms: _454  and  _456
REMARK  181  A    between atoms: _456  and  _457
REMARK  182  A    between atoms: _456  and  _459
REMARK  183  A    between atoms: _459  and  _460
REMARK  184  A    between atoms: _463  and  _465
REMARK  185  A    between atoms: _465  and  _466
REMARK  186  A    between atoms: _469  and  _471
REMARK  187  A    between atoms: _471  and  _472
REMARK  188  A    between atoms: _471  and  _474
REMARK  189  A    between atoms: _474  and  _475
REMARK  190  A    between atoms: _475  and  _476
REMARK  191  A    between atoms: _478  and  _480
REMARK  192  A    between atoms: _480  and  _481
REMARK  193  A    between atoms: _480  and  _483
REMARK  194  A    between atoms: _483  and  _484
REMARK  195  A    between atoms: _489  and  _490
REMARK  196  A    between atoms: _492  and  _494
REMARK  197  A    between atoms: _494  and  _495
REMARK  198  A    between atoms: _497  and  _499
REMARK  199  A    between atoms: _499  and  _500
REMARK  200  A    between atoms: _499  and  _502
REMARK  201  A    between atoms: _502  and  _503
REMARK  202  A    between atoms: _503  and  _504
REMARK  203  A    between atoms: _504  and  _505
REMARK  204  A    between atoms: _514  and  _516
REMARK  205  A    between atoms: _516  and  _517
REMARK  206  A    between atoms: _516  and  _519
REMARK  207  A    between atoms: _519  and  _520
REMARK  208  A    between atoms: _530  and  _532
REMARK  209  A    between atoms: _532  and  _533
REMARK  210  A    between atoms: _532  and  _535
REMARK  211  A    between atoms: _535  and  _536
REMARK  212  A    between atoms: _536  and  _537
REMARK  213  A    between atoms: _540  and  _542
REMARK  214  A    between atoms: _542  and  _543
REMARK  215  A    between atoms: _542  and  _545
REMARK  216  A    between atoms: _545  and  _546
REMARK  217  A    between atoms: _551  and  _553
REMARK  218  A    between atoms: _553  and  _554
REMARK  219  A    between atoms: _556  and  _558
REMARK  220  A    between atoms: _558  and  _559
REMARK  221  A    between atoms: _558  and  _561
REMARK  222  A    between atoms: _561  and  _562
REMARK  223  A    between atoms: _565  and  _567
REMARK  224  A    between atoms: _567  and  _568
REMARK  225  A    between atoms: _567  and  _570
REMARK  226  A    between atoms: _573  and  _575
REMARK  227  A    between atoms: _575  and  _576
REMARK  228  A    between atoms: _575  and  _578
REMARK  229  A    between atoms: _578  and  _579
REMARK  230  A    between atoms: _582  and  _584
REMARK  231  A    between atoms: _584  and  _585
REMARK  232  A    between atoms: _584  and  _587
REMARK  233  A    between atoms: _587  and  _588
REMARK  234  A    between atoms: _594  and  _596
REMARK  235  A    between atoms: _596  and  _597
REMARK  236  A    between atoms: _596  and  _599
REMARK  237  A    between atoms: _599  and  _600
REMARK  238  A    between atoms: _602  and  _604
REMARK  239  A    between atoms: _604  and  _605
REMARK  240  A    between atoms: _604  and  _607
REMARK  241  A    between atoms: _607  and  _608
REMARK  242  A    between atoms: _618  and  _620
REMARK  243  A    between atoms: _620  and  _621
REMARK  244  A    between atoms: _620  and  _623
REMARK  245  A    between atoms: _623  and  _624
REMARK  246  A    between atoms: _624  and  _625
REMARK  247  A    between atoms: _628  and  _630
REMARK  248  A    between atoms: _630  and  _631
REMARK  249  A    between atoms: _630  and  _633
REMARK  250  A    between atoms: _633  and  _634
REMARK  251  A    between atoms: _637  and  _639
REMARK  252  A    between atoms: _639  and  _640
REMARK                            x       y       z     vdW  Elec       q    Type
REMARK                         _______ _______ _______ _____ _____    ______ ____
ROOT
ATOM      1  C   HIS A   1      39.264  63.075  -8.108  0.00  0.00    +0.239 C 
ATOM      2  N   ASP A   2      40.170  64.050  -8.079  0.00  0.00    -0.298 N 
ATOM      3  H   ASP A   2      40.363  64.542  -7.184  0.00  0.00    +0.150 HD
ATOM      4  O   HIS A   1      39.001  62.426  -9.136  0.00  0.00    -0.274 OA
ENDROOT
BRANCH   1   5
ATOM      5  CA  HIS A   1      38.570  62.747  -6.766  0.00  0.00    +0.151 C 
BRANCH   5   6
ATOM      6  N   HIS A   1      39.521  62.711  -5.676  0.00  0.00    -0.238 NA
ATOM      7  H   HIS A   1      39.558  63.502  -5.002  0.00  0.00    +0.142 HD
ENDBRANCH   5   6
BRANCH   5   8
ATOM      8  CB  HIS A   1      37.508  63.795  -6.459  0.00  0.00    +0.074 C 
BRANCH   8   9
ATOM      9  CG  HIS A   1      36.248  63.621  -7.249  0.00  0.00    +0.082 A 
ATOM     10  ND1 HIS A   1      35.128  64.408  -7.047  0.00  0.00    -0.227 NA
ATOM     11  CE1 HIS A   1      34.178  64.036  -7.885  0.00  0.00    +0.199 A 
ATOM     12  NE2 HIS A   1      34.632  63.022  -8.609  0.00  0.00    -0.221 NA
ATOM     13  CD2 HIS A   1      35.914  62.729  -8.215  0.00  0.00    +0.115 A 
ENDBRANCH   8   9
ENDBRANCH   5   8
ENDBRANCH   1   5
BRANCH   2  14
ATOM     14  CA  ASP A   2      40.906  64.444  -9.298  0.00  0.00    +0.148 C 
BRANCH  14  15
ATOM     15  C   ASP A   2      42.403  64.377  -8.982  0.00  0.00    +0.227 C 
ATOM     16  O   ASP A   2      42.983  65.368  -8.562  0.00  0.00    -0.286 OA
ENDBRANCH  14  15
BRANCH  14  17
ATOM     17  CB  ASP A   2      40.424  65.815  -9.725  0.00  0.00    +0.142 C 
BRANCH  17  18
ATOM     18  CG  ASP A   2      41.150  66.376 -10.968  0.00  0.00    +0.367 C 
ATOM     19  OD2 ASP A   2      42.178  65.843 -11.376  0.00  0.00    -0.246 OA
ATOM     20  OD1 ASP A   2      40.697  67.417 -11.468  0.00  0.00    -0.246 OA
ENDBRANCH  17  18
ENDBRANCH  14  17
ENDBRANCH   2  14
TORSDOF 8
REMARK  Name = ../refined-set-2016/2wm0/2wm0_pocket.pdb
REMARK  252 active torsions:
REMARK  status: ('A' for Active; 'I' for Inactive)
REMARK    1  A    between atoms: _1  and  _3
REMARK    2  A    between atoms: _3  and  _4
REMARK    3  A    between atoms: _3  and  _6
REMARK    4  A    between atoms: _6  and  _7
REMARK    5  A    between atoms: _12  and  _13
REMARK    6  A    between atoms: _15  and  _17
REMARK    7  A    between atoms: _17  and  _18
REMARK    8  A    between atoms: _17  and  _20
REMARK    9  A    between atoms: _23  and  _25
REMARK   10  A    between atoms: _25  and  _26
REMARK   11  A    between atoms: _25  and  _28
REMARK   12  A    between atoms: _28  and  _29
REMARK   13  A    between atoms: _29  and  _30
REMARK   14  A    between atoms: _33  and  _35
REMARK   15  A    between atoms: _35  and  _36
REMARK   16  A    between atoms: _35  and  _38
REMARK   17  A    between atoms: _38  and  _39
REMARK   18  A    between atoms: _49  and  _51
REMARK   19  A    between atoms: _51  and  _52
REMARK   20  A    between atoms: _54  and  _56
REMARK   21  A    between atoms: _56  and  _57
REMARK   22  A    between atoms: _56  and  _59
REMARK   23  A    between atoms: _59  and  _60
REMARK   24  A    between atoms: _65  and  _66
REMARK   25  A    between atoms: _68  and  _70
REMARK   26  A    between atoms: _70  and  _71
REMARK   27  A    between atoms: _73  and  _75
REMARK   28  A    between atoms: _75  and  _76
REMARK   29  A    between atoms: _75  and  _78
REMARK   30  A    between atoms: _78  and  _79
REMARK   31  A    between atoms: _79  and  _80
REMARK   32  A    between atoms: _80  and  _81
REMARK   33  A    between atoms: _90  and  _92
REMARK   34  A    between atoms: _92  and  _93
REMARK   35  A    between atoms: _92  and  _95
REMARK   36  A    between atoms: _95  and  _96
REMARK   37  A    between atoms: _99  and  _101
REMARK   38  A    between atoms: _101  and  _102
REMARK   39  A    between atoms: _104  and  _106
REMARK   40  A    between atoms: _106  and  _107
REMARK   41  A    between atoms: _106  and  _109
REMARK   42  A    between atoms: _109  and  _110
REMARK   43  A    between atoms: _116  and  _118
REMARK   44  A    between atoms: _118  and  _119
REMARK   45  A    between atoms: _118  and  _121
REMARK   46  A    between atoms: _121  and  _122
REMARK   47  A    between atoms: _126  and  _127
REMARK   48  A    between atoms: _132  and  _134
REMARK   49  A    between atoms: _134  and  _135
REMARK   50  A    between atoms: _134  and  _137
REMARK   51  A    between atoms: _137  and  _138
REMARK   52  A    between atoms: _140  and  _142
REMARK   53  A    between atoms: _142  and  _143
REMARK   54  A    between atoms: _142  and  _145
REMARK   55  A    between atoms: _145  and  _146
REMARK   56  A    between atoms: _149  and  _151
REMARK   57  A    between atoms: _151  and  _152
REMARK   58  A    between atoms: _151  and  _154
REMARK   59  A    between atoms: _154  and  _155
REMARK   60  A    between atoms: _155  and  _156
REMARK   61  A    between atoms: _159  and  _161
REMARK   62  A    between atoms: _161  and  _162
REMARK   63  A    between atoms: _161  and  _164
REMARK   64  A    between atoms: _164  and  _165
REMARK   65  A    between atoms: _168  and  _170
REMARK   66  A    between atoms: _170  and  _171
REMARK   67  A    between atoms: _170  and  _173
REMARK   68  A    between atoms: _173  and  _174
REMARK   69  A    between atoms: _174  and  _175
REMARK   70  A    between atoms: _178  and  _180
REMARK   71  A    between atoms: _180  and  _181
REMARK   72  A    between atoms: _183  and  _185
REMARK   73  A    between atoms: _185  and  _186
REMARK   74  A    between atoms: _185  and  _188
REMARK   75  A    between atoms: _188  and  _189
REMARK   76  A    between atoms: _191  and  _193
REMARK   77  A    between atoms: _193  and  _194
REMARK   78  A    between atoms: _193  and  _196
REMARK   79  A    between atoms: _196  and  _197
REMARK   80  A    between atoms: _203  and  _205
REMARK   81  A    between atoms: _205  and  _206
REMARK   82  A    between atoms: _205  and  _208
REMARK   83  A    between atoms: _208  and  _209
REMARK   84  A    between atoms: _214  and  _216
REMARK   85  A    between atoms: _216  and  _217
REMARK   86  A    between atoms: _216  and  _219
REMARK   87  A    between atoms: _219  and  _220
REMARK   88  A    between atoms: _223  and  _225
REMARK   89  A    between atoms: _225  and  _226
REMARK   90  A    between atoms: _225  and  _228
REMARK   91  A    between atoms: _228  and  _229
REMARK   92  A    between atoms: _231  and  _233
REMARK   93  A    between atoms: _233  and  _234
REMARK   94  A    between atoms: _233  and  _236
REMARK   95  A    between atoms: _236  and  _237
REMARK   96  A    between atoms: _240  and  _242
REMARK   97  A    between atoms: _242  and  _243
REMARK   98  A    between atoms: _245  and  _247
REMARK   99  A    between atoms: _247  and  _248
REMARK  100  A    between atoms: _250  and  _252
REMARK  101  A    between atoms: _252  and  _253
REMARK  102  A    between atoms: _252  and  _255
REMARK  103  A    between atoms: _255  and  _256
REMARK  104  A    between atoms: _266  and  _268
REMARK  105  A    between atoms: _268  and  _269
REMARK  106  A    between atoms: _268  and  _271
REMARK  107  A    between atoms: _271  and  _272
REMARK  108  A    between atoms: _275  and  _277
REMARK  109  A    between atoms: _277  and  _278
REMARK  110  A    between atoms: _277  and  _280
REMARK  111  A    between atoms: _280  and  _281
REMARK  112  A    between atoms: _284  and  _286
REMARK  113  A    between atoms: _286  and  _287
REMARK  114  A    between atoms: _286  and  _289
REMARK  115  A    between atoms: _289  and  _290
REMARK  116  A    between atoms: _292  and  _294
REMARK  117  A    between atoms: _294  and  _295
REMARK  118  A    between atoms: _294  and  _297
REMARK  119  A    between atoms: _297  and  _298
REMARK  120  A    between atoms: _301  and  _303
REMARK  121  A    between atoms: _303  and  _304
REMARK  122  A    between atoms: _303  and  _306
REMARK  123  A    between atoms: _306  and  _307
REMARK  124  A    between atoms: _310  and  _312
REMARK  125  A    between atoms: _312  and  _313
REMARK  126  A    between atoms: _312  and  _315
REMARK  127  A    between atoms: _315  and  _316
REMARK  128  A    between atoms: _319  and  _321
REMARK  129  A    between atoms: _321  and  _322
REMARK  130  A    between atoms: _321  and  _324
REMARK  131  A    between atoms: _324  and  _325
REMARK  132  A    between atoms: _335  and  _337
REMARK  133  A    between atoms: _337  and  _338
REMARK  134  A    between atoms: _337  and  _340
REMARK  135  A    between atoms: _340  and  _341
REMARK  136  A    between atoms: _341  and  _342
REMARK  137  A    between atoms: _345  and  _347
REMARK  138  A    between atoms: _347  and  _348
REMARK  139  A    between atoms: _347  and  _350
REMARK  140  A    between atoms: _350  and  _351
REMARK  141  A    between atoms: _357  and  _359
REMARK  142  A    between atoms: _359  and  _360
REMARK  143  A    between atoms: _363  and  _365
REMARK  144  A    between atoms: _365  and  _366
REMARK  145  A    between atoms: _365  and  _368
REMARK  146  A    between atoms: _368  and  _369
REMARK  147  A    between atoms: _371  and  _373
REMARK  148  A    between atoms: _373  and  _374
REMARK  149  A    between atoms: _377  and  _379
REMARK  150  A    between atoms: _379  and  _380
REMARK  151  A    between atoms: _379  and  _382
REMARK  152  A    between atoms: _382  and  _383
REMARK  153  A    between atoms: _386  and  _388
REMARK  154  A    between atoms: _388  and  _389
REMARK  155  A    between atoms: _388  and  _391
REMARK  156  A    between atoms: _391  and  _392
REMARK  157  A    between atoms: _398  and  _400
REMARK  158  A    between atoms: _400  and  _401
REMARK  159  A    between atoms: _400  and  _403
REMARK  160  A    between atoms: _403  and  _404
REMARK  161  A    between atoms: _404  and  _405
REMARK  162  A    between atoms: _407  and  _409
REMARK  163  A    between atoms: _409  and  _410
REMARK  164  A    between atoms: _409  and  _412
REMARK  165  A    between atoms: _412  and  _413
REMARK  166  A    between atoms: _418  and  _419
REMARK  167  A    between atoms: _421  and  _423
REMARK  168  A    between atoms: _423  and  _424
REMARK  169  A    between atoms: _423  and  _426
REMARK  170  A    between atoms: _426  and  _427
REMARK  171  A    between atoms: _430  and  _432
REMARK  172  A    between atoms: _432  and  _433
REMARK  173  A    between atoms: _432  and  _435
REMARK  174  A    between atoms: _435  and  _436
REMARK  175  A    between atoms: _442  and  _444
REMARK  176  A    between atoms: _444  and  _445
REMARK  177  A    between atoms: _444  and  _447
REMARK  178  A    between atoms: _447  and  _448
REMARK  179  A    between atoms: _448  and  _449
REMARK  180  A    between atoms: _454  and  _456
REMARK  181  A    between atoms: _456  and  _457
REMARK  182  A    between atoms: _456  and  _459
REMARK  183  A    between atoms: _459  and  _460
REMARK  184  A    between atoms: _463  and  _465
REMARK  185  A    between atoms: _465  and  _466
REMARK  186  A    between atoms: _469  and  _471
REMARK  187  A    between atoms: _471  and  _472
REMARK  188  A    between atoms: _471  and  _474
REMARK  189  A    between atoms: _474  and  _475
REMARK  190  A    between atoms: _475  and  _476
REMARK  191  A    between atoms: _478  and  _480
REMARK  192  A    between atoms: _480  and  _481
REMARK  193  A    between atoms: _480  and  _483
REMARK  194  A    between atoms: _483  and  _484
REMARK  195  A    between atoms: _489  and  _490
REMARK  196  A    between atoms: _492  and  _494
REMARK  197  A    between atoms: _494  and  _495
REMARK  198  A    between atoms: _497  and  _499
REMARK  199  A    between atoms: _499  and  _500
REMARK  200  A    between atoms: _499  and  _502
REMARK  201  A    between atoms: _502  and  _503
REMARK  202  A    between atoms: _503  and  _504
REMARK  203  A    between atoms: _504  and  _505
REMARK  204  A    between atoms: _514  and  _516
REMARK  205  A    between atoms: _516  and  _517
REMARK  206  A    between atoms: _516  and  _519
REMARK  207  A    between atoms: _519  and  _520
REMARK  208  A    between atoms: _530  and  _532
REMARK  209  A    between atoms: _532  and  _533
REMARK  210  A    between atoms: _532  and  _535
REMARK  211  A    between atoms: _535  and  _536
REMARK  212  A    between atoms: _536  and  _537
REMARK  213  A    between atoms: _540  and  _542
REMARK  214  A    between atoms: _542  and  _543
REMARK  215  A    between atoms: _542  and  _545
REMARK  216  A    between atoms: _545  and  _546
REMARK  217  A    between atoms: _551  and  _553
REMARK  218  A    between atoms: _553  and  _554
REMARK  219  A    between atoms: _556  and  _558
REMARK  220  A    between atoms: _558  and  _559
REMARK  221  A    between atoms: _558  and  _561
REMARK  222  A    between atoms: _561  and  _562
REMARK  223  A    between atoms: _565  and  _567
REMARK  224  A    between atoms: _567  and  _568
REMARK  225  A    between atoms: _567  and  _570
REMARK  226  A    between atoms: _573  and  _575
REMARK  227  A    between atoms: _575  and  _576
REMARK  228  A    between atoms: _575  and  _578
REMARK  229  A    between atoms: _578  and  _579
REMARK  230  A    between atoms: _582  and  _584
REMARK  231  A    between atoms: _584  and  _585
REMARK  232  A    between atoms: _584  and  _587
REMARK  233  A    between atoms: _587  and  _588
REMARK  234  A    between atoms: _594  and  _596
REMARK  235  A    between atoms: _596  and  _597
REMARK  236  A    between atoms: _596  and  _599
REMARK  237  A    between atoms: _599  and  _600
REMARK  238  A    between atoms: _602  and  _604
REMARK  239  A    between atoms: _604  and  _605
REMARK  240  A    between atoms: _604  and  _607
REMARK  241  A    between atoms: _607  and  _608
REMARK  242  A    between atoms: _618  and  _620
REMARK  243  A    between atoms: _620  and  _621
REMARK  244  A    between atoms: _620  and  _623
REMARK  245  A    between atoms: _623  and  _624
REMARK  246  A    between atoms: _624  and  _625
REMARK  247  A    between atoms: _628  and  _630
REMARK  248  A    between atoms: _630  and  _631
REMARK  249  A    between atoms: _630  and  _633
REMARK  250  A    between atoms: _633  and  _634
REMARK  251  A    between atoms: _637  and  _639
REMARK  252  A    between atoms: _639  and  _640
REMARK                            x       y       z     vdW  Elec       q    Type
REMARK                         _______ _______ _______ _____ _____    ______ ____
ROOT
ATOM      1  CA  TRP A   5      26.738  68.425  -1.530  0.00  0.00    +0.153 C 
ENDROOT
BRANCH   1   2
ATOM      2  C   TRP A   5      26.679  67.139  -2.340  0.00  0.00    +0.241 C 
ATOM      3  O   TRP A   5      25.727  66.352  -2.224  0.00  0.00    -0.273 OA
ATOM      4  N   THR A   6      27.674  66.906  -3.169  0.00  0.00    -0.295 N 
ATOM      5  H   THR A   6      28.505  67.531  -3.157  0.00  0.00    +0.150 HD
BRANCH   4   6
ATOM      6  CA  THR A   6      27.632  65.781  -4.109  0.00  0.00    +0.176 C 
BRANCH   6   7
ATOM      7  C   THR A   6      28.345  64.505  -3.661  0.00  0.00    +0.243 C 
ATOM      8  N   LEU A   7      29.054  64.562  -2.527  0.00  0.00    -0.297 N 
ATOM      9  H   LEU A   7      29.034  65.424  -1.945  0.00  0.00    +0.150 HD
ATOM     10  O   THR A   6      28.249  63.458  -4.358  0.00  0.00    -0.273 OA
BRANCH   8  11
ATOM     11  CA  LEU A   7      29.867  63.400  -2.100  0.00  0.00    +0.149 C 
BRANCH  11  12
ATOM     12  C   LEU A   7      29.425  62.906  -0.704  0.00  0.00    +0.241 C 
ATOM     13  O   LEU A   7      30.178  62.196  -0.022  0.00  0.00    -0.273 OA
ATOM     14  N   SER A   8      28.224  63.294  -0.283  0.00  0.00    -0.296 N 
ATOM     15  H   SER A   8      27.643  63.894  -0.903  0.00  0.00    +0.150 HD
BRANCH  14  16
ATOM     16  CA  SER A   8      27.688  62.898   1.042  0.00  0.00    +0.166 C 
BRANCH  16  17
ATOM     17  CB  SER A   8      26.935  61.548   1.037  0.00  0.00    +0.229 C 
ATOM     18  OG  SER A   8      26.636  61.000   2.121  0.00  0.00    -0.286 OA
ENDBRANCH  16  17
BRANCH  16  19
ATOM     19  C   SER A   8      26.716  63.980   1.565  0.00  0.00    +0.165 C 
BRANCH  19  20
ATOM     20  O   SER A   8      27.449  65.045   2.108  0.00  0.00    -0.380 OA
ATOM     21  H   SER A   8      28.031  65.434   1.408  0.00  0.00    +0.211 HD
ENDBRANCH  19  20
ENDBRANCH  16  19
ENDBRANCH  14  16
ENDBRANCH  11  12
BRANCH  11  22
ATOM     22  CB  LEU A   7      31.353  63.780  -2.083  0.00  0.00    +0.029 C 
BRANCH  22  23
ATOM     23  CG  LEU A   7      32.008  63.904  -3.486  0.00  0.00    +0.002 C 
ATOM     24  CD2 LEU A   7      33.428  64.597  -3.448  0.00  0.00    +0.000 C 
ATOM     25  CD1 LEU A   7      32.186  62.471  -4.097  0.00  0.00    +0.000 C 
ENDBRANCH  22  23
ENDBRANCH  11  22
ENDBRANCH   8  11
ENDBRANCH   6   7
BRANCH   6  26
ATOM     26  CB  THR A   6      28.238  66.169  -5.419  0.00  0.00    +0.137 C 
ATOM     27  CG2 THR A   6      27.489  67.413  -6.001  0.00  0.00    +0.034 C 
BRANCH  26  28
ATOM     28  OG1 THR A   6      29.632  66.415  -5.209  0.00  0.00    -0.382 OA
ATOM     29  HG1 THR A   6      30.053  66.674  -6.067  0.00  0.00    +0.210 HD
ENDBRANCH  26  28
ENDBRANCH   6  26
ENDBRANCH   4   6
ENDBRANCH   1   2
BRANCH   1  32
ATOM     30  C   GLY A   4      28.632  67.779  -0.167  0.00  0.00    +0.243 C 
ATOM     31  O   GLY A   4      28.201  66.588  -0.076  0.00  0.00    -0.273 OA
ATOM     32  N   TRP A   5      28.031  68.716  -0.904  0.00  0.00    -0.297 N 
ATOM     33  H   TRP A   5      28.477  69.646  -1.033  0.00  0.00    +0.150 HD
BRANCH  30  34
ATOM     34  CA  GLY A   4      29.899  68.207   0.530  0.00  0.00    +0.176 C 
BRANCH  34  36
ATOM     35  C   GLY A   3      31.308  66.259   0.835  0.00  0.00    +0.243 C 
ATOM     36  N   GLY A   4      30.453  67.118   1.332  0.00  0.00    -0.295 N 
ATOM     37  H   GLY A   4      30.160  67.022   2.325  0.00  0.00    +0.150 HD
ATOM     38  O   GLY A   3      31.840  66.400  -0.267  0.00  0.00    -0.273 OA
BRANCH  35  39
ATOM     39  CA  GLY A   3      31.663  65.067   1.720  0.00  0.00    +0.176 C 
BRANCH  39  42
ATOM     40  C   ILE A   2      33.604  65.006   3.168  0.00  0.00    +0.241 C 
ATOM     41  O   ILE A   2      32.902  65.220   4.159  0.00  0.00    -0.273 OA
ATOM     42  N   GLY A   3      33.094  64.907   1.943  0.00  0.00    -0.295 N 
ATOM     43  H   GLY A   3      33.723  64.714   1.137  0.00  0.00    +0.150 HD
BRANCH  40  44
ATOM     44  CA  ILE A   2      35.112  64.806   3.299  0.00  0.00    +0.148 C 
BRANCH  44  46
ATOM     45  C   SER A   1      36.334  66.920   3.206  0.00  0.00    +0.241 C 
ATOM     46  N   ILE A   2      35.684  66.023   3.922  0.00  0.00    -0.297 N 
ATOM     47  H   ILE A   2      35.571  66.173   4.945  0.00  0.00    +0.150 HD
ATOM     48  O   SER A   1      36.471  66.826   1.984  0.00  0.00    -0.274 OA
BRANCH  45  49
ATOM     49  CA  SER A   1      36.923  68.093   3.974  0.00  0.00    +0.174 C 
BRANCH  49  50
ATOM     50  N   SER A   1      38.366  68.179   3.714  0.00  0.00    -0.236 NA
ATOM     51  H   SER A   1      38.720  68.645   2.854  0.00  0.00    +0.142 HD
ENDBRANCH  49  50
BRANCH  49  52
ATOM     52  CB  SER A   1      36.241  69.390   3.596  0.00  0.00    +0.163 C 
BRANCH  52  53
ATOM     53  OG  SER A   1      36.584  70.394   4.540  0.00  0.00    -0.380 OA
ATOM     54  H   SER A   1      36.286  70.113   5.441  0.00  0.00    +0.211 HD
ENDBRANCH  52  53
ENDBRANCH  49  52
ENDBRANCH  45  49
ENDBRANCH  44  46
BRANCH  44  55
ATOM     55  CB  ILE A   2      35.401  63.541   4.145  0.00  0.00    +0.027 C 
ATOM     56  CG2 ILE A   2      34.816  62.274   3.456  0.00  0.00    +0.002 C 
BRANCH  55  57
ATOM     57  CG1 ILE A   2      36.926  63.331   4.322  0.00  0.00    +0.002 C 
ATOM     58  CD1 ILE A   2      37.251  62.174   5.300  0.00  0.00    +0.000 C 
ENDBRANCH  55  57
ENDBRANCH  44  55
ENDBRANCH  40  44
ENDBRANCH  39  42
ENDBRANCH  35  39
ENDBRANCH  34  36
ENDBRANCH  30  34
ENDBRANCH   1  32
BRANCH   1  59
ATOM     59  CB  TRP A   5      26.299  69.624  -2.412  0.00  0.00    +0.057 C 
BRANCH  59  60
ATOM     60  CG  TRP A   5      24.856  69.489  -2.883  0.00  0.00    -0.002 A 
ATOM     61  CD2 TRP A   5      23.648  69.601  -2.078  0.00  0.00    +0.013 A 
ATOM     62  CE3 TRP A   5      23.388  69.813  -0.690  0.00  0.00    +0.001 A 
ATOM     63  CZ3 TRP A   5      22.045  69.881  -0.243  0.00  0.00    +0.000 A 
ATOM     64  CH2 TRP A   5      20.970  69.700  -1.163  0.00  0.00    +0.001 A 
ATOM     65  CZ2 TRP A   5      21.214  69.480  -2.504  0.00  0.00    +0.017 A 
ATOM     66  CE2 TRP A   5      22.552  69.435  -2.953  0.00  0.00    +0.056 A 
ATOM     67  NE1 TRP A   5      23.058  69.207  -4.213  0.00  0.00    -0.352 N 
ATOM     68  HE1 TRP A   5      22.485  69.034  -5.064  0.00  0.00    +0.166 HD
ATOM     69  CD1 TRP A   5      24.444  69.242  -4.180  0.00  0.00    +0.068 A 
ENDBRANCH  59  60
ENDBRANCH   1  59
TORSDOF 28
REMARK  Name = ../refined-set-2016/2wm0/2wm0_pocket.pdb
REMARK  252 active torsions:
REMARK  status: ('A' for Active; 'I' for Inactive)
REMARK    1  A    between atoms: _1  and  _3
REMARK    2  A    between atoms: _3  and  _4
REMARK    3  A    between atoms: _3  and  _6
REMARK    4  A    between atoms: _6  and  _7
REMARK    5  A    between atoms: _12  and  _13
REMARK    6  A    between atoms: _15  and  _17
REMARK    7  A    between atoms: _17  and  _18
REMARK    8  A    between atoms: _17  and  _20
REMARK    9  A    between atoms: _23  and  _25
REMARK   10  A    between atoms: _25  and  _26
REMARK   11  A    between atoms: _25  and  _28
REMARK   12  A    between atoms: _28  and  _29
REMARK   13  A    between atoms: _29  and  _30
REMARK   14  A    between atoms: _33  and  _35
REMARK   15  A    between atoms: _35  and  _36
REMARK   16  A    between atoms: _35  and  _38
REMARK   17  A    between atoms: _38  and  _39
REMARK   18  A    between atoms: _49  and  _51
REMARK   19  A    between atoms: _51  and  _52
REMARK   20  A    between atoms: _54  and  _56
REMARK   21  A    between atoms: _56  and  _57
REMARK   22  A    between atoms: _56  and  _59
REMARK   23  A    between atoms: _59  and  _60
REMARK   24  A    between atoms: _65  and  _66
REMARK   25  A    between atoms: _68  and  _70
REMARK   26  A    between atoms: _70  and  _71
REMARK   27  A    between atoms: _73  and  _75
REMARK   28  A    between atoms: _75  and  _76
REMARK   29  A    between atoms: _75  and  _78
REMARK   30  A    between atoms: _78  and  _79
REMARK   31  A    between atoms: _79  and  _80
REMARK   32  A    between atoms: _80  and  _81
REMARK   33  A    between atoms: _90  and  _92
REMARK   34  A    between atoms: _92  and  _93
REMARK   35  A    between atoms: _92  and  _95
REMARK   36  A    between atoms: _95  and  _96
REMARK   37  A    between atoms: _99  and  _101
REMARK   38  A    between atoms: _101  and  _102
REMARK   39  A    between atoms: _104  and  _106
REMARK   40  A    between atoms: _106  and  _107
REMARK   41  A    between atoms: _106  and  _109
REMARK   42  A    between atoms: _109  and  _110
REMARK   43  A    between atoms: _116  and  _118
REMARK   44  A    between atoms: _118  and  _119
REMARK   45  A    between atoms: _118  and  _121
REMARK   46  A    between atoms: _121  and  _122
REMARK   47  A    between atoms: _126  and  _127
REMARK   48  A    between atoms: _132  and  _134
REMARK   49  A    between atoms: _134  and  _135
REMARK   50  A    between atoms: _134  and  _137
REMARK   51  A    between atoms: _137  and  _138
REMARK   52  A    between atoms: _140  and  _142
REMARK   53  A    between atoms: _142  and  _143
REMARK   54  A    between atoms: _142  and  _145
REMARK   55  A    between atoms: _145  and  _146
REMARK   56  A    between atoms: _149  and  _151
REMARK   57  A    between atoms: _151  and  _152
REMARK   58  A    between atoms: _151  and  _154
REMARK   59  A    between atoms: _154  and  _155
REMARK   60  A    between atoms: _155  and  _156
REMARK   61  A    between atoms: _159  and  _161
REMARK   62  A    between atoms: _161  and  _162
REMARK   63  A    between atoms: _161  and  _164
REMARK   64  A    between atoms: _164  and  _165
REMARK   65  A    between atoms: _168  and  _170
REMARK   66  A    between atoms: _170  and  _171
REMARK   67  A    between atoms: _170  and  _173
REMARK   68  A    between atoms: _173  and  _174
REMARK   69  A    between atoms: _174  and  _175
REMARK   70  A    between atoms: _178  and  _180
REMARK   71  A    between atoms: _180  and  _181
REMARK   72  A    between atoms: _183  and  _185
REMARK   73  A    between atoms: _185  and  _186
REMARK   74  A    between atoms: _185  and  _188
REMARK   75  A    between atoms: _188  and  _189
REMARK   76  A    between atoms: _191  and  _193
REMARK   77  A    between atoms: _193  and  _194
REMARK   78  A    between atoms: _193  and  _196
REMARK   79  A    between atoms: _196  and  _197
REMARK   80  A    between atoms: _203  and  _205
REMARK   81  A    between atoms: _205  and  _206
REMARK   82  A    between atoms: _205  and  _208
REMARK   83  A    between atoms: _208  and  _209
REMARK   84  A    between atoms: _214  and  _216
REMARK   85  A    between atoms: _216  and  _217
REMARK   86  A    between atoms: _216  and  _219
REMARK   87  A    between atoms: _219  and  _220
REMARK   88  A    between atoms: _223  and  _225
REMARK   89  A    between atoms: _225  and  _226
REMARK   90  A    between atoms: _225  and  _228
REMARK   91  A    between atoms: _228  and  _229
REMARK   92  A    between atoms: _231  and  _233
REMARK   93  A    between atoms: _233  and  _234
REMARK   94  A    between atoms: _233  and  _236
REMARK   95  A    between atoms: _236  and  _237
REMARK   96  A    between atoms: _240  and  _242
REMARK   97  A    between atoms: _242  and  _243
REMARK   98  A    between atoms: _245  and  _247
REMARK   99  A    between atoms: _247  and  _248
REMARK  100  A    between atoms: _250  and  _252
REMARK  101  A    between atoms: _252  and  _253
REMARK  102  A    between atoms: _252  and  _255
REMARK  103  A    between atoms: _255  and  _256
REMARK  104  A    between atoms: _266  and  _268
REMARK  105  A    between atoms: _268  and  _269
REMARK  106  A    between atoms: _268  and  _271
REMARK  107  A    between atoms: _271  and  _272
REMARK  108  A    between atoms: _275  and  _277
REMARK  109  A    between atoms: _277  and  _278
REMARK  110  A    between atoms: _277  and  _280
REMARK  111  A    between atoms: _280  and  _281
REMARK  112  A    between atoms: _284  and  _286
REMARK  113  A    between atoms: _286  and  _287
REMARK  114  A    between atoms: _286  and  _289
REMARK  115  A    between atoms: _289  and  _290
REMARK  116  A    between atoms: _292  and  _294
REMARK  117  A    between atoms: _294  and  _295
REMARK  118  A    between atoms: _294  and  _297
REMARK  119  A    between atoms: _297  and  _298
REMARK  120  A    between atoms: _301  and  _303
REMARK  121  A    between atoms: _303  and  _304
REMARK  122  A    between atoms: _303  and  _306
REMARK  123  A    between atoms: _306  and  _307
REMARK  124  A    between atoms: _310  and  _312
REMARK  125  A    between atoms: _312  and  _313
REMARK  126  A    between atoms: _312  and  _315
REMARK  127  A    between atoms: _315  and  _316
REMARK  128  A    between atoms: _319  and  _321
REMARK  129  A    between atoms: _321  and  _322
REMARK  130  A    between atoms: _321  and  _324
REMARK  131  A    between atoms: _324  and  _325
REMARK  132  A    between atoms: _335  and  _337
REMARK  133  A    between atoms: _337  and  _338
REMARK  134  A    between atoms: _337  and  _340
REMARK  135  A    between atoms: _340  and  _341
REMARK  136  A    between atoms: _341  and  _342
REMARK  137  A    between atoms: _345  and  _347
REMARK  138  A    between atoms: _347  and  _348
REMARK  139  A    between atoms: _347  and  _350
REMARK  140  A    between atoms: _350  and  _351
REMARK  141  A    between atoms: _357  and  _359
REMARK  142  A    between atoms: _359  and  _360
REMARK  143  A    between atoms: _363  and  _365
REMARK  144  A    between atoms: _365  and  _366
REMARK  145  A    between atoms: _365  and  _368
REMARK  146  A    between atoms: _368  and  _369
REMARK  147  A    between atoms: _371  and  _373
REMARK  148  A    between atoms: _373  and  _374
REMARK  149  A    between atoms: _377  and  _379
REMARK  150  A    between atoms: _379  and  _380
REMARK  151  A    between atoms: _379  and  _382
REMARK  152  A    between atoms: _382  and  _383
REMARK  153  A    between atoms: _386  and  _388
REMARK  154  A    between atoms: _388  and  _389
REMARK  155  A    between atoms: _388  and  _391
REMARK  156  A    between atoms: _391  and  _392
REMARK  157  A    between atoms: _398  and  _400
REMARK  158  A    between atoms: _400  and  _401
REMARK  159  A    between atoms: _400  and  _403
REMARK  160  A    between atoms: _403  and  _404
REMARK  161  A    between atoms: _404  and  _405
REMARK  162  A    between atoms: _407  and  _409
REMARK  163  A    between atoms: _409  and  _410
REMARK  164  A    between atoms: _409  and  _412
REMARK  165  A    between atoms: _412  and  _413
REMARK  166  A    between atoms: _418  and  _419
REMARK  167  A    between atoms: _421  and  _423
REMARK  168  A    between atoms: _423  and  _424
REMARK  169  A    between atoms: _423  and  _426
REMARK  170  A    between atoms: _426  and  _427
REMARK  171  A    between atoms: _430  and  _432
REMARK  172  A    between atoms: _432  and  _433
REMARK  173  A    between atoms: _432  and  _435
REMARK  174  A    between atoms: _435  and  _436
REMARK  175  A    between atoms: _442  and  _444
REMARK  176  A    between atoms: _444  and  _445
REMARK  177  A    between atoms: _444  and  _447
REMARK  178  A    between atoms: _447  and  _448
REMARK  179  A    between atoms: _448  and  _449
REMARK  180  A    between atoms: _454  and  _456
REMARK  181  A    between atoms: _456  and  _457
REMARK  182  A    between atoms: _456  and  _459
REMARK  183  A    between atoms: _459  and  _460
REMARK  184  A    between atoms: _463  and  _465
REMARK  185  A    between atoms: _465  and  _466
REMARK  186  A    between atoms: _469  and  _471
REMARK  187  A    between atoms: _471  and  _472
REMARK  188  A    between atoms: _471  and  _474
REMARK  189  A    between atoms: _474  and  _475
REMARK  190  A    between atoms: _475  and  _476
REMARK  191  A    between atoms: _478  and  _480
REMARK  192  A    between atoms: _480  and  _481
REMARK  193  A    between atoms: _480  and  _483
REMARK  194  A    between atoms: _483  and  _484
REMARK  195  A    between atoms: _489  and  _490
REMARK  196  A    between atoms: _492  and  _494
REMARK  197  A    between atoms: _494  and  _495
REMARK  198  A    between atoms: _497  and  _499
REMARK  199  A    between atoms: _499  and  _500
REMARK  200  A    between atoms: _499  and  _502
REMARK  201  A    between atoms: _502  and  _503
REMARK  202  A    between atoms: _503  and  _504
REMARK  203  A    between atoms: _504  and  _505
REMARK  204  A    between atoms: _514  and  _516
REMARK  205  A    between atoms: _516  and  _517
REMARK  206  A    between atoms: _516  and  _519
REMARK  207  A    between atoms: _519  and  _520
REMARK  208  A    between atoms: _530  and  _532
REMARK  209  A    between atoms: _532  and  _533
REMARK  210  A    between atoms: _532  and  _535
REMARK  211  A    between atoms: _535  and  _536
REMARK  212  A    between atoms: _536  and  _537
REMARK  213  A    between atoms: _540  and  _542
REMARK  214  A    between atoms: _542  and  _543
REMARK  215  A    between atoms: _542  and  _545
REMARK  216  A    between atoms: _545  and  _546
REMARK  217  A    between atoms: _551  and  _553
REMARK  218  A    between atoms: _553  and  _554
REMARK  219  A    between atoms: _556  and  _558
REMARK  220  A    between atoms: _558  and  _559
REMARK  221  A    between atoms: _558  and  _561
REMARK  222  A    between atoms: _561  and  _562
REMARK  223  A    between atoms: _565  and  _567
REMARK  224  A    between atoms: _567  and  _568
REMARK  225  A    between atoms: _567  and  _570
REMARK  226  A    between atoms: _573  and  _575
REMARK  227  A    between atoms: _575  and  _576
REMARK  228  A    between atoms: _575  and  _578
REMARK  229  A    between atoms: _578  and  _579
REMARK  230  A    between atoms: _582  and  _584
REMARK  231  A    between atoms: _584  and  _585
REMARK  232  A    between atoms: _584  and  _587
REMARK  233  A    between atoms: _587  and  _588
REMARK  234  A    between atoms: _594  and  _596
REMARK  235  A    between atoms: _596  and  _597
REMARK  236  A    between atoms: _596  and  _599
REMARK  237  A    between atoms: _599  and  _600
REMARK  238  A    between atoms: _602  and  _604
REMARK  239  A    between atoms: _604  and  _605
REMARK  240  A    between atoms: _604  and  _607
REMARK  241  A    between atoms: _607  and  _608
REMARK  242  A    between atoms: _618  and  _620
REMARK  243  A    between atoms: _620  and  _621
REMARK  244  A    between atoms: _620  and  _623
REMARK  245  A    between atoms: _623  and  _624
REMARK  246  A    between atoms: _624  and  _625
REMARK  247  A    between atoms: _628  and  _630
REMARK  248  A    between atoms: _630  and  _631
REMARK  249  A    between atoms: _630  and  _633
REMARK  250  A    between atoms: _633  and  _634
REMARK  251  A    between atoms: _637  and  _639
REMARK  252  A    between atoms: _639  and  _640
REMARK                            x       y       z     vdW  Elec       q    Type
REMARK                         _______ _______ _______ _____ _____    ______ ____
ROOT
ATOM      1  CA  TRP A   4      27.795  65.224   5.714  0.00  0.00    +0.153 C 
ENDROOT
BRANCH   1   2
ATOM      2  C   TRP A   4      26.531  66.017   5.505  0.00  0.00    +0.241 C 
ATOM      3  O   TRP A   4      26.029  66.621   6.452  0.00  0.00    -0.273 OA
ATOM      4  N   GLU A   5      26.024  66.037   4.264  0.00  0.00    -0.297 N 
ATOM      5  H   GLU A   5      26.462  65.465   3.513  0.00  0.00    +0.150 HD
BRANCH   4   6
ATOM      6  CA  GLU A   5      24.857  66.862   3.968  0.00  0.00    +0.149 C 
BRANCH   6   7
ATOM      7  C   GLU A   5      23.705  65.967   3.532  0.00  0.00    +0.241 C 
ATOM      8  N   PHE A   6      22.802  65.568   4.449  0.00  0.00    -0.298 N 
ATOM      9  H   PHE A   6      22.037  64.951   4.110  0.00  0.00    +0.150 HD
ATOM     10  O   GLU A   5      23.619  65.648   2.345  0.00  0.00    -0.273 OA
BRANCH   8  11
ATOM     11  CA  PHE A   6      22.784  65.911   5.870  0.00  0.00    +0.141 C 
BRANCH  11  12
ATOM     12  C   PHE A   6      22.239  64.669   6.602  0.00  0.00    +0.227 C 
ATOM     13  O   PHE A   6      21.448  63.931   6.025  0.00  0.00    -0.286 OA
ENDBRANCH  11  12
BRANCH  11  14
ATOM     14  CB  PHE A   6      21.792  67.079   6.172  0.00  0.00    +0.054 C 
BRANCH  14  15
ATOM     15  CG  PHE A   6      21.991  68.296   5.324  0.00  0.00    -0.020 A 
ATOM     16  CD2 PHE A   6      23.007  69.241   5.617  0.00  0.00    -0.004 A 
ATOM     17  CE2 PHE A   6      23.163  70.374   4.802  0.00  0.00    -0.000 A 
ATOM     18  CZ  PHE A   6      22.325  70.547   3.668  0.00  0.00    -0.000 A 
ATOM     19  CE1 PHE A   6      21.336  69.636   3.389  0.00  0.00    -0.000 A 
ATOM     20  CD1 PHE A   6      21.185  68.496   4.200  0.00  0.00    -0.004 A 
ENDBRANCH  14  15
ENDBRANCH  11  14
ENDBRANCH   8  11
ENDBRANCH   6   7
BRANCH   6  21
ATOM     21  CB  GLU A   5      25.206  67.899   2.870  0.00  0.00    +0.041 C 
BRANCH  21  22
ATOM     22  CG  GLU A   5      26.382  68.782   3.339  0.00  0.00    +0.116 C 
BRANCH  22  23
ATOM     23  CD  GLU A   5      26.782  69.903   2.370  0.00  0.00    +0.365 C 
ATOM     24  OE2 GLU A   5      27.934  70.392   2.528  0.00  0.00    -0.246 OA
ATOM     25  OE1 GLU A   5      25.990  70.281   1.471  0.00  0.00    -0.246 OA
ENDBRANCH  22  23
ENDBRANCH  21  22
ENDBRANCH   6  21
ENDBRANCH   4   6
ENDBRANCH   1   2
BRANCH   1  27
ATOM     26  C   ASP A   3      29.590  66.737   5.172  0.00  0.00    +0.241 C 
ATOM     27  N   TRP A   4      28.833  66.172   6.088  0.00  0.00    -0.297 N 
ATOM     28  H   TRP A   4      28.978  66.406   7.091  0.00  0.00    +0.150 HD
ATOM     29  O   ASP A   3      29.471  66.516   3.966  0.00  0.00    -0.273 OA
BRANCH  26  30
ATOM     30  CA  ASP A   3      30.671  67.661   5.708  0.00  0.00    +0.160 C 
BRANCH  30  33
ATOM     31  C   ILE A   2      31.987  66.779   7.548  0.00  0.00    +0.241 C 
ATOM     32  O   ILE A   2      31.346  67.439   8.382  0.00  0.00    -0.273 OA
ATOM     33  N   ASP A   3      31.712  66.801   6.252  0.00  0.00    -0.297 N 
ATOM     34  H   ASP A   3      32.253  66.189   5.608  0.00  0.00    +0.150 HD
BRANCH  31  35
ATOM     35  CA  ILE A   2      33.144  65.873   7.971  0.00  0.00    +0.148 C 
BRANCH  35  37
ATOM     36  C   ASP A   1      35.344  66.962   7.791  0.00  0.00    +0.239 C 
ATOM     37  N   ILE A   2      34.219  66.724   8.480  0.00  0.00    -0.297 N 
ATOM     38  H   ILE A   2      34.106  67.163   9.416  0.00  0.00    +0.150 HD
ATOM     39  O   ASP A   1      35.608  66.461   6.694  0.00  0.00    -0.274 OA
BRANCH  36  40
ATOM     40  CA  ASP A   1      36.374  67.894   8.455  0.00  0.00    +0.156 C 
BRANCH  40  41
ATOM     41  N   ASP A   1      37.645  67.190   8.425  0.00  0.00    -0.238 NA
ATOM     42  H   ASP A   1      38.118  67.062   7.508  0.00  0.00    +0.142 HD
ENDBRANCH  40  41
BRANCH  40  43
ATOM     43  CB  ASP A   1      36.457  69.193   7.685  0.00  0.00    +0.140 C 
BRANCH  43  44
ATOM     44  CG  ASP A   1      35.154  69.945   7.687  0.00  0.00    +0.367 C 
ATOM     45  OD2 ASP A   1      34.613  70.257   8.808  0.00  0.00    -0.246 OA
ATOM     46  OD1 ASP A   1      34.656  70.217   6.546  0.00  0.00    -0.246 OA
ENDBRANCH  43  44
ENDBRANCH  40  43
ENDBRANCH  36  40
ENDBRANCH  35  37
BRANCH  35  47
ATOM     47  CB  ILE A   2      32.668  64.841   9.047  0.00  0.00    +0.027 C 
ATOM     48  CG2 ILE A   2      31.400  64.036   8.521  0.00  0.00    +0.002 C 
BRANCH  47  49
ATOM     49  CG1 ILE A   2      33.860  63.971   9.512  0.00  0.00    +0.002 C 
ATOM     50  CD1 ILE A   2      34.389  63.019   8.374  0.00  0.00    +0.000 C 
ENDBRANCH  47  49
ENDBRANCH  35  47
ENDBRANCH  31  35
ENDBRANCH  30  33
BRANCH  30  51
ATOM     51  CB  ASP A   3      31.270  68.497   4.602  0.00  0.00    +0.143 C 
BRANCH  51  52
ATOM     52  CG  ASP A   3      32.299  69.466   5.119  0.00  0.00    +0.367 C 
ATOM     53  OD2 ASP A   3      32.511  69.515   6.349  0.00  0.00    -0.246 OA
ATOM     54  OD1 ASP A   3      32.910  70.163   4.289  0.00  0.00    -0.246 OA
ENDBRANCH  51  52
ENDBRANCH  30  51
ENDBRANCH  26  30
ENDBRANCH   1  27
BRANCH   1  55
ATOM     55  CB  TRP A   4      27.624  64.202   6.845  0.00  0.00    +0.057 C 
BRANCH  55  56
ATOM     56  CG  TRP A   4      26.447  63.219   6.664  0.00  0.00    -0.002 A 
ATOM     57  CD2 TRP A   4      26.097  62.187   7.584  0.00  0.00    +0.013 A 
ATOM     58  CE3 TRP A   4      26.654  61.753   8.800  0.00  0.00    +0.001 A 
ATOM     59  CZ3 TRP A   4      26.076  60.651   9.460  0.00  0.00    +0.000 A 
ATOM     60  CH2 TRP A   4      24.925  60.005   8.920  0.00  0.00    +0.001 A 
ATOM     61  CZ2 TRP A   4      24.353  60.425   7.715  0.00  0.00    +0.017 A 
ATOM     62  CE2 TRP A   4      24.951  61.510   7.056  0.00  0.00    +0.056 A 
ATOM     63  NE1 TRP A   4      24.610  62.119   5.867  0.00  0.00    -0.352 N 
ATOM     64  HE1 TRP A   4      23.824  61.846   5.243  0.00  0.00    +0.166 HD
ATOM     65  CD1 TRP A   4      25.511  63.173   5.646  0.00  0.00    +0.068 A 
ENDBRANCH  55  56
ENDBRANCH   1  55
TORSDOF 25
REMARK  Name = ../refined-set-2016/2wm0/2wm0_pocket.pdb
REMARK  252 active torsions:
REMARK  status: ('A' for Active; 'I' for Inactive)
REMARK    1  A    between atoms: _1  and  _3
REMARK    2  A    between atoms: _3  and  _4
REMARK    3  A    between atoms: _3  and  _6
REMARK    4  A    between atoms: _6  and  _7
REMARK    5  A    between atoms: _12  and  _13
REMARK    6  A    between atoms: _15  and  _17
REMARK    7  A    between atoms: _17  and  _18
REMARK    8  A    between atoms: _17  and  _20
REMARK    9  A    between atoms: _23  and  _25
REMARK   10  A    between atoms: _25  and  _26
REMARK   11  A    between atoms: _25  and  _28
REMARK   12  A    between atoms: _28  and  _29
REMARK   13  A    between atoms: _29  and  _30
REMARK   14  A    between atoms: _33  and  _35
REMARK   15  A    between atoms: _35  and  _36
REMARK   16  A    between atoms: _35  and  _38
REMARK   17  A    between atoms: _38  and  _39
REMARK   18  A    between atoms: _49  and  _51
REMARK   19  A    between atoms: _51  and  _52
REMARK   20  A    between atoms: _54  and  _56
REMARK   21  A    between atoms: _56  and  _57
REMARK   22  A    between atoms: _56  and  _59
REMARK   23  A    between atoms: _59  and  _60
REMARK   24  A    between atoms: _65  and  _66
REMARK   25  A    between atoms: _68  and  _70
REMARK   26  A    between atoms: _70  and  _71
REMARK   27  A    between atoms: _73  and  _75
REMARK   28  A    between atoms: _75  and  _76
REMARK   29  A    between atoms: _75  and  _78
REMARK   30  A    between atoms: _78  and  _79
REMARK   31  A    between atoms: _79  and  _80
REMARK   32  A    between atoms: _80  and  _81
REMARK   33  A    between atoms: _90  and  _92
REMARK   34  A    between atoms: _92  and  _93
REMARK   35  A    between atoms: _92  and  _95
REMARK   36  A    between atoms: _95  and  _96
REMARK   37  A    between atoms: _99  and  _101
REMARK   38  A    between atoms: _101  and  _102
REMARK   39  A    between atoms: _104  and  _106
REMARK   40  A    between atoms: _106  and  _107
REMARK   41  A    between atoms: _106  and  _109
REMARK   42  A    between atoms: _109  and  _110
REMARK   43  A    between atoms: _116  and  _118
REMARK   44  A    between atoms: _118  and  _119
REMARK   45  A    between atoms: _118  and  _121
REMARK   46  A    between atoms: _121  and  _122
REMARK   47  A    between atoms: _126  and  _127
REMARK   48  A    between atoms: _132  and  _134
REMARK   49  A    between atoms: _134  and  _135
REMARK   50  A    between atoms: _134  and  _137
REMARK   51  A    between atoms: _137  and  _138
REMARK   52  A    between atoms: _140  and  _142
REMARK   53  A    between atoms: _142  and  _143
REMARK   54  A    between atoms: _142  and  _145
REMARK   55  A    between atoms: _145  and  _146
REMARK   56  A    between atoms: _149  and  _151
REMARK   57  A    between atoms: _151  and  _152
REMARK   58  A    between atoms: _151  and  _154
REMARK   59  A    between atoms: _154  and  _155
REMARK   60  A    between atoms: _155  and  _156
REMARK   61  A    between atoms: _159  and  _161
REMARK   62  A    between atoms: _161  and  _162
REMARK   63  A    between atoms: _161  and  _164
REMARK   64  A    between atoms: _164  and  _165
REMARK   65  A    between atoms: _168  and  _170
REMARK   66  A    between atoms: _170  and  _171
REMARK   67  A    between atoms: _170  and  _173
REMARK   68  A    between atoms: _173  and  _174
REMARK   69  A    between atoms: _174  and  _175
REMARK   70  A    between atoms: _178  and  _180
REMARK   71  A    between atoms: _180  and  _181
REMARK   72  A    between atoms: _183  and  _185
REMARK   73  A    between atoms: _185  and  _186
REMARK   74  A    between atoms: _185  and  _188
REMARK   75  A    between atoms: _188  and  _189
REMARK   76  A    between atoms: _191  and  _193
REMARK   77  A    between atoms: _193  and  _194
REMARK   78  A    between atoms: _193  and  _196
REMARK   79  A    between atoms: _196  and  _197
REMARK   80  A    between atoms: _203  and  _205
REMARK   81  A    between atoms: _205  and  _206
REMARK   82  A    between atoms: _205  and  _208
REMARK   83  A    between atoms: _208  and  _209
REMARK   84  A    between atoms: _214  and  _216
REMARK   85  A    between atoms: _216  and  _217
REMARK   86  A    between atoms: _216  and  _219
REMARK   87  A    between atoms: _219  and  _220
REMARK   88  A    between atoms: _223  and  _225
REMARK   89  A    between atoms: _225  and  _226
REMARK   90  A    between atoms: _225  and  _228
REMARK   91  A    between atoms: _228  and  _229
REMARK   92  A    between atoms: _231  and  _233
REMARK   93  A    between atoms: _233  and  _234
REMARK   94  A    between atoms: _233  and  _236
REMARK   95  A    between atoms: _236  and  _237
REMARK   96  A    between atoms: _240  and  _242
REMARK   97  A    between atoms: _242  and  _243
REMARK   98  A    between atoms: _245  and  _247
REMARK   99  A    between atoms: _247  and  _248
REMARK  100  A    between atoms: _250  and  _252
REMARK  101  A    between atoms: _252  and  _253
REMARK  102  A    between atoms: _252  and  _255
REMARK  103  A    between atoms: _255  and  _256
REMARK  104  A    between atoms: _266  and  _268
REMARK  105  A    between atoms: _268  and  _269
REMARK  106  A    between atoms: _268  and  _271
REMARK  107  A    between atoms: _271  and  _272
REMARK  108  A    between atoms: _275  and  _277
REMARK  109  A    between atoms: _277  and  _278
REMARK  110  A    between atoms: _277  and  _280
REMARK  111  A    between atoms: _280  and  _281
REMARK  112  A    between atoms: _284  and  _286
REMARK  113  A    between atoms: _286  and  _287
REMARK  114  A    between atoms: _286  and  _289
REMARK  115  A    between atoms: _289  and  _290
REMARK  116  A    between atoms: _292  and  _294
REMARK  117  A    between atoms: _294  and  _295
REMARK  118  A    between atoms: _294  and  _297
REMARK  119  A    between atoms: _297  and  _298
REMARK  120  A    between atoms: _301  and  _303
REMARK  121  A    between atoms: _303  and  _304
REMARK  122  A    between atoms: _303  and  _306
REMARK  123  A    between atoms: _306  and  _307
REMARK  124  A    between atoms: _310  and  _312
REMARK  125  A    between atoms: _312  and  _313
REMARK  126  A    between atoms: _312  and  _315
REMARK  127  A    between atoms: _315  and  _316
REMARK  128  A    between atoms: _319  and  _321
REMARK  129  A    between atoms: _321  and  _322
REMARK  130  A    between atoms: _321  and  _324
REMARK  131  A    between atoms: _324  and  _325
REMARK  132  A    between atoms: _335  and  _337
REMARK  133  A    between atoms: _337  and  _338
REMARK  134  A    between atoms: _337  and  _340
REMARK  135  A    between atoms: _340  and  _341
REMARK  136  A    between atoms: _341  and  _342
REMARK  137  A    between atoms: _345  and  _347
REMARK  138  A    between atoms: _347  and  _348
REMARK  139  A    between atoms: _347  and  _350
REMARK  140  A    between atoms: _350  and  _351
REMARK  141  A    between atoms: _357  and  _359
REMARK  142  A    between atoms: _359  and  _360
REMARK  143  A    between atoms: _363  and  _365
REMARK  144  A    between atoms: _365  and  _366
REMARK  145  A    between atoms: _365  and  _368
REMARK  146  A    between atoms: _368  and  _369
REMARK  147  A    between atoms: _371  and  _373
REMARK  148  A    between atoms: _373  and  _374
REMARK  149  A    between atoms: _377  and  _379
REMARK  150  A    between atoms: _379  and  _380
REMARK  151  A    between atoms: _379  and  _382
REMARK  152  A    between atoms: _382  and  _383
REMARK  153  A    between atoms: _386  and  _388
REMARK  154  A    between atoms: _388  and  _389
REMARK  155  A    between atoms: _388  and  _391
REMARK  156  A    between atoms: _391  and  _392
REMARK  157  A    between atoms: _398  and  _400
REMARK  158  A    between atoms: _400  and  _401
REMARK  159  A    between atoms: _400  and  _403
REMARK  160  A    between atoms: _403  and  _404
REMARK  161  A    between atoms: _404  and  _405
REMARK  162  A    between atoms: _407  and  _409
REMARK  163  A    between atoms: _409  and  _410
REMARK  164  A    between atoms: _409  and  _412
REMARK  165  A    between atoms: _412  and  _413
REMARK  166  A    between atoms: _418  and  _419
REMARK  167  A    between atoms: _421  and  _423
REMARK  168  A    between atoms: _423  and  _424
REMARK  169  A    between atoms: _423  and  _426
REMARK  170  A    between atoms: _426  and  _427
REMARK  171  A    between atoms: _430  and  _432
REMARK  172  A    between atoms: _432  and  _433
REMARK  173  A    between atoms: _432  and  _435
REMARK  174  A    between atoms: _435  and  _436
REMARK  175  A    between atoms: _442  and  _444
REMARK  176  A    between atoms: _444  and  _445
REMARK  177  A    between atoms: _444  and  _447
REMARK  178  A    between atoms: _447  and  _448
REMARK  179  A    between atoms: _448  and  _449
REMARK  180  A    between atoms: _454  and  _456
REMARK  181  A    between atoms: _456  and  _457
REMARK  182  A    between atoms: _456  and  _459
REMARK  183  A    between atoms: _459  and  _460
REMARK  184  A    between atoms: _463  and  _465
REMARK  185  A    between atoms: _465  and  _466
REMARK  186  A    between atoms: _469  and  _471
REMARK  187  A    between atoms: _471  and  _472
REMARK  188  A    between atoms: _471  and  _474
REMARK  189  A    between atoms: _474  and  _475
REMARK  190  A    between atoms: _475  and  _476
REMARK  191  A    between atoms: _478  and  _480
REMARK  192  A    between atoms: _480  and  _481
REMARK  193  A    between atoms: _480  and  _483
REMARK  194  A    between atoms: _483  and  _484
REMARK  195  A    between atoms: _489  and  _490
REMARK  196  A    between atoms: _492  and  _494
REMARK  197  A    between atoms: _494  and  _495
REMARK  198  A    between atoms: _497  and  _499
REMARK  199  A    between atoms: _499  and  _500
REMARK  200  A    between atoms: _499  and  _502
REMARK  201  A    between atoms: _502  and  _503
REMARK  202  A    between atoms: _503  and  _504
REMARK  203  A    between atoms: _504  and  _505
REMARK  204  A    between atoms: _514  and  _516
REMARK  205  A    between atoms: _516  and  _517
REMARK  206  A    between atoms: _516  and  _519
REMARK  207  A    between atoms: _519  and  _520
REMARK  208  A    between atoms: _530  and  _532
REMARK  209  A    between atoms: _532  and  _533
REMARK  210  A    between atoms: _532  and  _535
REMARK  211  A    between atoms: _535  and  _536
REMARK  212  A    between atoms: _536  and  _537
REMARK  213  A    between atoms: _540  and  _542
REMARK  214  A    between atoms: _542  and  _543
REMARK  215  A    between atoms: _542  and  _545
REMARK  216  A    between atoms: _545  and  _546
REMARK  217  A    between atoms: _551  and  _553
REMARK  218  A    between atoms: _553  and  _554
REMARK  219  A    between atoms: _556  and  _558
REMARK  220  A    between atoms: _558  and  _559
REMARK  221  A    between atoms: _558  and  _561
REMARK  222  A    between atoms: _561  and  _562
REMARK  223  A    between atoms: _565  and  _567
REMARK  224  A    between atoms: _567  and  _568
REMARK  225  A    between atoms: _567  and  _570
REMARK  226  A    between atoms: _573  and  _575
REMARK  227  A    between atoms: _575  and  _576
REMARK  228  A    between atoms: _575  and  _578
REMARK  229  A    between atoms: _578  and  _579
REMARK  230  A    between atoms: _582  and  _584
REMARK  231  A    between atoms: _584  and  _585
REMARK  232  A    between atoms: _584  and  _587
REMARK  233  A    between atoms: _587  and  _588
REMARK  234  A    between atoms: _594  and  _596
REMARK  235  A    between atoms: _596  and  _597
REMARK  236  A    between atoms: _596  and  _599
REMARK  237  A    between atoms: _599  and  _600
REMARK  238  A    between atoms: _602  and  _604
REMARK  239  A    between atoms: _604  and  _605
REMARK  240  A    between atoms: _604  and  _607
REMARK  241  A    between atoms: _607  and  _608
REMARK  242  A    between atoms: _618  and  _620
REMARK  243  A    between atoms: _620  and  _621
REMARK  244  A    between atoms: _620  and  _623
REMARK  245  A    between atoms: _623  and  _624
REMARK  246  A    between atoms: _624  and  _625
REMARK  247  A    between atoms: _628  and  _630
REMARK  248  A    between atoms: _630  and  _631
REMARK  249  A    between atoms: _630  and  _633
REMARK  250  A    between atoms: _633  and  _634
REMARK  251  A    between atoms: _637  and  _639
REMARK  252  A    between atoms: _639  and  _640
REMARK                            x       y       z     vdW  Elec       q    Type
REMARK                         _______ _______ _______ _____ _____    ______ ____
ROOT
ATOM      1  CA  ALA A   1      21.252  66.030  -2.939  0.00  0.00    +0.133 C 
ATOM      2  CB  ALA A   1      22.634  65.891  -3.593  0.00  0.00    +0.027 C 
ENDROOT
BRANCH   1   3
ATOM      3  N   ALA A   1      21.415  66.177  -1.494  0.00  0.00    -0.239 NA
ATOM      4  H   ALA A   1      22.358  66.079  -1.066  0.00  0.00    +0.142 HD
ENDBRANCH   1   3
BRANCH   1   5
ATOM      5  C   ALA A   1      20.365  64.826  -3.336  0.00  0.00    +0.224 C 
ATOM      6  O   ALA A   1      19.639  64.861  -4.373  0.00  0.00    -0.287 OA
ENDBRANCH   1   5
TORSDOF 2
REMARK  Name = ../refined-set-2016/2wm0/2wm0_pocket.pdb
REMARK  252 active torsions:
REMARK  status: ('A' for Active; 'I' for Inactive)
REMARK    1  A    between atoms: _1  and  _3
REMARK    2  A    between atoms: _3  and  _4
REMARK    3  A    between atoms: _3  and  _6
REMARK    4  A    between atoms: _6  and  _7
REMARK    5  A    between atoms: _12  and  _13
REMARK    6  A    between atoms: _15  and  _17
REMARK    7  A    between atoms: _17  and  _18
REMARK    8  A    between atoms: _17  and  _20
REMARK    9  A    between atoms: _23  and  _25
REMARK   10  A    between atoms: _25  and  _26
REMARK   11  A    between atoms: _25  and  _28
REMARK   12  A    between atoms: _28  and  _29
REMARK   13  A    between atoms: _29  and  _30
REMARK   14  A    between atoms: _33  and  _35
REMARK   15  A    between atoms: _35  and  _36
REMARK   16  A    between atoms: _35  and  _38
REMARK   17  A    between atoms: _38  and  _39
REMARK   18  A    between atoms: _49  and  _51
REMARK   19  A    between atoms: _51  and  _52
REMARK   20  A    between atoms: _54  and  _56
REMARK   21  A    between atoms: _56  and  _57
REMARK   22  A    between atoms: _56  and  _59
REMARK   23  A    between atoms: _59  and  _60
REMARK   24  A    between atoms: _65  and  _66
REMARK   25  A    between atoms: _68  and  _70
REMARK   26  A    between atoms: _70  and  _71
REMARK   27  A    between atoms: _73  and  _75
REMARK   28  A    between atoms: _75  and  _76
REMARK   29  A    between atoms: _75  and  _78
REMARK   30  A    between atoms: _78  and  _79
REMARK   31  A    between atoms: _79  and  _80
REMARK   32  A    between atoms: _80  and  _81
REMARK   33  A    between atoms: _90  and  _92
REMARK   34  A    between atoms: _92  and  _93
REMARK   35  A    between atoms: _92  and  _95
REMARK   36  A    between atoms: _95  and  _96
REMARK   37  A    between atoms: _99  and  _101
REMARK   38  A    between atoms: _101  and  _102
REMARK   39  A    between atoms: _104  and  _106
REMARK   40  A    between atoms: _106  and  _107
REMARK   41  A    between atoms: _106  and  _109
REMARK   42  A    between atoms: _109  and  _110
REMARK   43  A    between atoms: _116  and  _118
REMARK   44  A    between atoms: _118  and  _119
REMARK   45  A    between atoms: _118  and  _121
REMARK   46  A    between atoms: _121  and  _122
REMARK   47  A    between atoms: _126  and  _127
REMARK   48  A    between atoms: _132  and  _134
REMARK   49  A    between atoms: _134  and  _135
REMARK   50  A    between atoms: _134  and  _137
REMARK   51  A    between atoms: _137  and  _138
REMARK   52  A    between atoms: _140  and  _142
REMARK   53  A    between atoms: _142  and  _143
REMARK   54  A    between atoms: _142  and  _145
REMARK   55  A    between atoms: _145  and  _146
REMARK   56  A    between atoms: _149  and  _151
REMARK   57  A    between atoms: _151  and  _152
REMARK   58  A    between atoms: _151  and  _154
REMARK   59  A    between atoms: _154  and  _155
REMARK   60  A    between atoms: _155  and  _156
REMARK   61  A    between atoms: _159  and  _161
REMARK   62  A    between atoms: _161  and  _162
REMARK   63  A    between atoms: _161  and  _164
REMARK   64  A    between atoms: _164  and  _165
REMARK   65  A    between atoms: _168  and  _170
REMARK   66  A    between atoms: _170  and  _171
REMARK   67  A    between atoms: _170  and  _173
REMARK   68  A    between atoms: _173  and  _174
REMARK   69  A    between atoms: _174  and  _175
REMARK   70  A    between atoms: _178  and  _180
REMARK   71  A    between atoms: _180  and  _181
REMARK   72  A    between atoms: _183  and  _185
REMARK   73  A    between atoms: _185  and  _186
REMARK   74  A    between atoms: _185  and  _188
REMARK   75  A    between atoms: _188  and  _189
REMARK   76  A    between atoms: _191  and  _193
REMARK   77  A    between atoms: _193  and  _194
REMARK   78  A    between atoms: _193  and  _196
REMARK   79  A    between atoms: _196  and  _197
REMARK   80  A    between atoms: _203  and  _205
REMARK   81  A    between atoms: _205  and  _206
REMARK   82  A    between atoms: _205  and  _208
REMARK   83  A    between atoms: _208  and  _209
REMARK   84  A    between atoms: _214  and  _216
REMARK   85  A    between atoms: _216  and  _217
REMARK   86  A    between atoms: _216  and  _219
REMARK   87  A    between atoms: _219  and  _220
REMARK   88  A    between atoms: _223  and  _225
REMARK   89  A    between atoms: _225  and  _226
REMARK   90  A    between atoms: _225  and  _228
REMARK   91  A    between atoms: _228  and  _229
REMARK   92  A    between atoms: _231  and  _233
REMARK   93  A    between atoms: _233  and  _234
REMARK   94  A    between atoms: _233  and  _236
REMARK   95  A    between atoms: _236  and  _237
REMARK   96  A    between atoms: _240  and  _242
REMARK   97  A    between atoms: _242  and  _243
REMARK   98  A    between atoms: _245  and  _247
REMARK   99  A    between atoms: _247  and  _248
REMARK  100  A    between atoms: _250  and  _252
REMARK  101  A    between atoms: _252  and  _253
REMARK  102  A    between atoms: _252  and  _255
REMARK  103  A    between atoms: _255  and  _256
REMARK  104  A    between atoms: _266  and  _268
REMARK  105  A    between atoms: _268  and  _269
REMARK  106  A    between atoms: _268  and  _271
REMARK  107  A    between atoms: _271  and  _272
REMARK  108  A    between atoms: _275  and  _277
REMARK  109  A    between atoms: _277  and  _278
REMARK  110  A    between atoms: _277  and  _280
REMARK  111  A    between atoms: _280  and  _281
REMARK  112  A    between atoms: _284  and  _286
REMARK  113  A    between atoms: _286  and  _287
REMARK  114  A    between atoms: _286  and  _289
REMARK  115  A    between atoms: _289  and  _290
REMARK  116  A    between atoms: _292  and  _294
REMARK  117  A    between atoms: _294  and  _295
REMARK  118  A    between atoms: _294  and  _297
REMARK  119  A    between atoms: _297  and  _298
REMARK  120  A    between atoms: _301  and  _303
REMARK  121  A    between atoms: _303  and  _304
REMARK  122  A    between atoms: _303  and  _306
REMARK  123  A    between atoms: _306  and  _307
REMARK  124  A    between atoms: _310  and  _312
REMARK  125  A    between atoms: _312  and  _313
REMARK  126  A    between atoms: _312  and  _315
REMARK  127  A    between atoms: _315  and  _316
REMARK  128  A    between atoms: _319  and  _321
REMARK  129  A    between atoms: _321  and  _322
REMARK  130  A    between atoms: _321  and  _324
REMARK  131  A    between atoms: _324  and  _325
REMARK  132  A    between atoms: _335  and  _337
REMARK  133  A    between atoms: _337  and  _338
REMARK  134  A    between atoms: _337  and  _340
REMARK  135  A    between atoms: _340  and  _341
REMARK  136  A    between atoms: _341  and  _342
REMARK  137  A    between atoms: _345  and  _347
REMARK  138  A    between atoms: _347  and  _348
REMARK  139  A    between atoms: _347  and  _350
REMARK  140  A    between atoms: _350  and  _351
REMARK  141  A    between atoms: _357  and  _359
REMARK  142  A    between atoms: _359  and  _360
REMARK  143  A    between atoms: _363  and  _365
REMARK  144  A    between atoms: _365  and  _366
REMARK  145  A    between atoms: _365  and  _368
REMARK  146  A    between atoms: _368  and  _369
REMARK  147  A    between atoms: _371  and  _373
REMARK  148  A    between atoms: _373  and  _374
REMARK  149  A    between atoms: _377  and  _379
REMARK  150  A    between atoms: _379  and  _380
REMARK  151  A    between atoms: _379  and  _382
REMARK  152  A    between atoms: _382  and  _383
REMARK  153  A    between atoms: _386  and  _388
REMARK  154  A    between atoms: _388  and  _389
REMARK  155  A    between atoms: _388  and  _391
REMARK  156  A    between atoms: _391  and  _392
REMARK  157  A    between atoms: _398  and  _400
REMARK  158  A    between atoms: _400  and  _401
REMARK  159  A    between atoms: _400  and  _403
REMARK  160  A    between atoms: _403  and  _404
REMARK  161  A    between atoms: _404  and  _405
REMARK  162  A    between atoms: _407  and  _409
REMARK  163  A    between atoms: _409  and  _410
REMARK  164  A    between atoms: _409  and  _412
REMARK  165  A    between atoms: _412  and  _413
REMARK  166  A    between atoms: _418  and  _419
REMARK  167  A    between atoms: _421  and  _423
REMARK  168  A    between atoms: _423  and  _424
REMARK  169  A    between atoms: _423  and  _426
REMARK  170  A    between atoms: _426  and  _427
REMARK  171  A    between atoms: _430  and  _432
REMARK  172  A    between atoms: _432  and  _433
REMARK  173  A    between atoms: _432  and  _435
REMARK  174  A    between atoms: _435  and  _436
REMARK  175  A    between atoms: _442  and  _444
REMARK  176  A    between atoms: _444  and  _445
REMARK  177  A    between atoms: _444  and  _447
REMARK  178  A    between atoms: _447  and  _448
REMARK  179  A    between atoms: _448  and  _449
REMARK  180  A    between atoms: _454  and  _456
REMARK  181  A    between atoms: _456  and  _457
REMARK  182  A    between atoms: _456  and  _459
REMARK  183  A    between atoms: _459  and  _460
REMARK  184  A    between atoms: _463  and  _465
REMARK  185  A    between atoms: _465  and  _466
REMARK  186  A    between atoms: _469  and  _471
REMARK  187  A    between atoms: _471  and  _472
REMARK  188  A    between atoms: _471  and  _474
REMARK  189  A    between atoms: _474  and  _475
REMARK  190  A    between atoms: _475  and  _476
REMARK  191  A    between atoms: _478  and  _480
REMARK  192  A    between atoms: _480  and  _481
REMARK  193  A    between atoms: _480  and  _483
REMARK  194  A    between atoms: _483  and  _484
REMARK  195  A    between atoms: _489  and  _490
REMARK  196  A    between atoms: _492  and  _494
REMARK  197  A    between atoms: _494  and  _495
REMARK  198  A    between atoms: _497  and  _499
REMARK  199  A    between atoms: _499  and  _500
REMARK  200  A    between atoms: _499  and  _502
REMARK  201  A    between atoms: _502  and  _503
REMARK  202  A    between atoms: _503  and  _504
REMARK  203  A    between atoms: _504  and  _505
REMARK  204  A    between atoms: _514  and  _516
REMARK  205  A    between atoms: _516  and  _517
REMARK  206  A    between atoms: _516  and  _519
REMARK  207  A    between atoms: _519  and  _520
REMARK  208  A    between atoms: _530  and  _532
REMARK  209  A    between atoms: _532  and  _533
REMARK  210  A    between atoms: _532  and  _535
REMARK  211  A    between atoms: _535  and  _536
REMARK  212  A    between atoms: _536  and  _537
REMARK  213  A    between atoms: _540  and  _542
REMARK  214  A    between atoms: _542  and  _543
REMARK  215  A    between atoms: _542  and  _545
REMARK  216  A    between atoms: _545  and  _546
REMARK  217  A    between atoms: _551  and  _553
REMARK  218  A    between atoms: _553  and  _554
REMARK  219  A    between atoms: _556  and  _558
REMARK  220  A    between atoms: _558  and  _559
REMARK  221  A    between atoms: _558  and  _561
REMARK  222  A    between atoms: _561  and  _562
REMARK  223  A    between atoms: _565  and  _567
REMARK  224  A    between atoms: _567  and  _568
REMARK  225  A    between atoms: _567  and  _570
REMARK  226  A    between atoms: _573  and  _575
REMARK  227  A    between atoms: _575  and  _576
REMARK  228  A    between atoms: _575  and  _578
REMARK  229  A    between atoms: _578  and  _579
REMARK  230  A    between atoms: _582  and  _584
REMARK  231  A    between atoms: _584  and  _585
REMARK  232  A    between atoms: _584  and  _587
REMARK  233  A    between atoms: _587  and  _588
REMARK  234  A    between atoms: _594  and  _596
REMARK  235  A    between atoms: _596  and  _597
REMARK  236  A    between atoms: _596  and  _599
REMARK  237  A    between atoms: _599  and  _600
REMARK  238  A    between atoms: _602  and  _604
REMARK  239  A    between atoms: _604  and  _605
REMARK  240  A    between atoms: _604  and  _607
REMARK  241  A    between atoms: _607  and  _608
REMARK  242  A    between atoms: _618  and  _620
REMARK  243  A    between atoms: _620  and  _621
REMARK  244  A    between atoms: _620  and  _623
REMARK  245  A    between atoms: _623  and  _624
REMARK  246  A    between atoms: _624  and  _625
REMARK  247  A    between atoms: _628  and  _630
REMARK  248  A    between atoms: _630  and  _631
REMARK  249  A    between atoms: _630  and  _633
REMARK  250  A    between atoms: _633  and  _634
REMARK  251  A    between atoms: _637  and  _639
REMARK  252  A    between atoms: _639  and  _640
REMARK                            x       y       z     vdW  Elec       q    Type
REMARK                         _______ _______ _______ _____ _____    ______ ____
ROOT
ATOM      1  CA  ALA A   2      30.196  71.599   8.506  0.00  0.00    +0.149 C 
ATOM      2  CB  ALA A   2      30.578  72.011   7.101  0.00  0.00    +0.031 C 
ENDROOT
BRANCH   1   5
ATOM      3  C   SER A   1      31.401  70.489  10.298  0.00  0.00    +0.241 C 
ATOM      4  O   SER A   1      31.098  71.373  11.121  0.00  0.00    -0.274 OA
ATOM      5  N   ALA A   2      31.083  70.554   8.996  0.00  0.00    -0.297 N 
ATOM      6  H   ALA A   2      31.473  69.854   8.333  0.00  0.00    +0.150 HD
BRANCH   3   7
ATOM      7  CA  SER A   1      32.142  69.236  10.761  0.00  0.00    +0.174 C 
BRANCH   7   8
ATOM      8  N   SER A   1      33.232  69.610  11.659  0.00  0.00    -0.236 NA
ATOM      9  H   SER A   1      33.157  70.485  12.217  0.00  0.00    +0.142 HD
ENDBRANCH   7   8
BRANCH   7  10
ATOM     10  CB  SER A   1      31.188  68.309  11.523  0.00  0.00    +0.163 C 
BRANCH  10  11
ATOM     11  OG  SER A   1      30.141  67.895  10.701  0.00  0.00    -0.380 OA
ATOM     12  H   SER A   1      30.508  67.407   9.922  0.00  0.00    +0.211 HD
ENDBRANCH  10  11
ENDBRANCH   7  10
ENDBRANCH   3   7
ENDBRANCH   1   5
BRANCH   1  13
ATOM     13  C   ALA A   2      28.770  71.057   8.533  0.00  0.00    +0.241 C 
ATOM     14  N   ILE A   3      27.839  71.857   9.092  0.00  0.00    -0.298 N 
ATOM     15  H   ILE A   3      28.070  72.845   9.322  0.00  0.00    +0.150 HD
ATOM     16  O   ALA A   2      28.511  69.902   8.074  0.00  0.00    -0.273 OA
BRANCH  14  17
ATOM     17  CA  ILE A   3      26.492  71.328   9.377  0.00  0.00    +0.137 C 
BRANCH  17  18
ATOM     18  CB  ILE A   3      26.280  71.113  10.900  0.00  0.00    +0.026 C 
ATOM     19  CG2 ILE A   3      27.428  70.175  11.471  0.00  0.00    +0.002 C 
BRANCH  18  20
ATOM     20  CG1 ILE A   3      26.189  72.458  11.656  0.00  0.00    +0.002 C 
ATOM     21  CD1 ILE A   3      25.643  72.296  13.167  0.00  0.00    +0.000 C 
ENDBRANCH  18  20
ENDBRANCH  17  18
BRANCH  17  22
ATOM     22  C   ILE A   3      25.412  72.264   8.819  0.00  0.00    +0.227 C 
ATOM     23  O   ILE A   3      25.660  73.462   8.627  0.00  0.00    -0.286 OA
ENDBRANCH  17  22
ENDBRANCH  14  17
ENDBRANCH   1  13
TORSDOF 10
REMARK  Name = ../refined-set-2016/2wm0/2wm0_pocket.pdb
REMARK  252 active torsions:
REMARK  status: ('A' for Active; 'I' for Inactive)
REMARK    1  A    between atoms: _1  and  _3
REMARK    2  A    between atoms: _3  and  _4
REMARK    3  A    between atoms: _3  and  _6
REMARK    4  A    between atoms: _6  and  _7
REMARK    5  A    between atoms: _12  and  _13
REMARK    6  A    between atoms: _15  and  _17
REMARK    7  A    between atoms: _17  and  _18
REMARK    8  A    between atoms: _17  and  _20
REMARK    9  A    between atoms: _23  and  _25
REMARK   10  A    between atoms: _25  and  _26
REMARK   11  A    between atoms: _25  and  _28
REMARK   12  A    between atoms: _28  and  _29
REMARK   13  A    between atoms: _29  and  _30
REMARK   14  A    between atoms: _33  and  _35
REMARK   15  A    between atoms: _35  and  _36
REMARK   16  A    between atoms: _35  and  _38
REMARK   17  A    between atoms: _38  and  _39
REMARK   18  A    between atoms: _49  and  _51
REMARK   19  A    between atoms: _51  and  _52
REMARK   20  A    between atoms: _54  and  _56
REMARK   21  A    between atoms: _56  and  _57
REMARK   22  A    between atoms: _56  and  _59
REMARK   23  A    between atoms: _59  and  _60
REMARK   24  A    between atoms: _65  and  _66
REMARK   25  A    between atoms: _68  and  _70
REMARK   26  A    between atoms: _70  and  _71
REMARK   27  A    between atoms: _73  and  _75
REMARK   28  A    between atoms: _75  and  _76
REMARK   29  A    between atoms: _75  and  _78
REMARK   30  A    between atoms: _78  and  _79
REMARK   31  A    between atoms: _79  and  _80
REMARK   32  A    between atoms: _80  and  _81
REMARK   33  A    between atoms: _90  and  _92
REMARK   34  A    between atoms: _92  and  _93
REMARK   35  A    between atoms: _92  and  _95
REMARK   36  A    between atoms: _95  and  _96
REMARK   37  A    between atoms: _99  and  _101
REMARK   38  A    between atoms: _101  and  _102
REMARK   39  A    between atoms: _104  and  _106
REMARK   40  A    between atoms: _106  and  _107
REMARK   41  A    between atoms: _106  and  _109
REMARK   42  A    between atoms: _109  and  _110
REMARK   43  A    between atoms: _116  and  _118
REMARK   44  A    between atoms: _118  and  _119
REMARK   45  A    between atoms: _118  and  _121
REMARK   46  A    between atoms: _121  and  _122
REMARK   47  A    between atoms: _126  and  _127
REMARK   48  A    between atoms: _132  and  _134
REMARK   49  A    between atoms: _134  and  _135
REMARK   50  A    between atoms: _134  and  _137
REMARK   51  A    between atoms: _137  and  _138
REMARK   52  A    between atoms: _140  and  _142
REMARK   53  A    between atoms: _142  and  _143
REMARK   54  A    between atoms: _142  and  _145
REMARK   55  A    between atoms: _145  and  _146
REMARK   56  A    between atoms: _149  and  _151
REMARK   57  A    between atoms: _151  and  _152
REMARK   58  A    between atoms: _151  and  _154
REMARK   59  A    between atoms: _154  and  _155
REMARK   60  A    between atoms: _155  and  _156
REMARK   61  A    between atoms: _159  and  _161
REMARK   62  A    between atoms: _161  and  _162
REMARK   63  A    between atoms: _161  and  _164
REMARK   64  A    between atoms: _164  and  _165
REMARK   65  A    between atoms: _168  and  _170
REMARK   66  A    between atoms: _170  and  _171
REMARK   67  A    between atoms: _170  and  _173
REMARK   68  A    between atoms: _173  and  _174
REMARK   69  A    between atoms: _174  and  _175
REMARK   70  A    between atoms: _178  and  _180
REMARK   71  A    between atoms: _180  and  _181
REMARK   72  A    between atoms: _183  and  _185
REMARK   73  A    between atoms: _185  and  _186
REMARK   74  A    between atoms: _185  and  _188
REMARK   75  A    between atoms: _188  and  _189
REMARK   76  A    between atoms: _191  and  _193
REMARK   77  A    between atoms: _193  and  _194
REMARK   78  A    between atoms: _193  and  _196
REMARK   79  A    between atoms: _196  and  _197
REMARK   80  A    between atoms: _203  and  _205
REMARK   81  A    between atoms: _205  and  _206
REMARK   82  A    between atoms: _205  and  _208
REMARK   83  A    between atoms: _208  and  _209
REMARK   84  A    between atoms: _214  and  _216
REMARK   85  A    between atoms: _216  and  _217
REMARK   86  A    between atoms: _216  and  _219
REMARK   87  A    between atoms: _219  and  _220
REMARK   88  A    between atoms: _223  and  _225
REMARK   89  A    between atoms: _225  and  _226
REMARK   90  A    between atoms: _225  and  _228
REMARK   91  A    between atoms: _228  and  _229
REMARK   92  A    between atoms: _231  and  _233
REMARK   93  A    between atoms: _233  and  _234
REMARK   94  A    between atoms: _233  and  _236
REMARK   95  A    between atoms: _236  and  _237
REMARK   96  A    between atoms: _240  and  _242
REMARK   97  A    between atoms: _242  and  _243
REMARK   98  A    between atoms: _245  and  _247
REMARK   99  A    between atoms: _247  and  _248
REMARK  100  A    between atoms: _250  and  _252
REMARK  101  A    between atoms: _252  and  _253
REMARK  102  A    between atoms: _252  and  _255
REMARK  103  A    between atoms: _255  and  _256
REMARK  104  A    between atoms: _266  and  _268
REMARK  105  A    between atoms: _268  and  _269
REMARK  106  A    between atoms: _268  and  _271
REMARK  107  A    between atoms: _271  and  _272
REMARK  108  A    between atoms: _275  and  _277
REMARK  109  A    between atoms: _277  and  _278
REMARK  110  A    between atoms: _277  and  _280
REMARK  111  A    between atoms: _280  and  _281
REMARK  112  A    between atoms: _284  and  _286
REMARK  113  A    between atoms: _286  and  _287
REMARK  114  A    between atoms: _286  and  _289
REMARK  115  A    between atoms: _289  and  _290
REMARK  116  A    between atoms: _292  and  _294
REMARK  117  A    between atoms: _294  and  _295
REMARK  118  A    between atoms: _294  and  _297
REMARK  119  A    between atoms: _297  and  _298
REMARK  120  A    between atoms: _301  and  _303
REMARK  121  A    between atoms: _303  and  _304
REMARK  122  A    between atoms: _303  and  _306
REMARK  123  A    between atoms: _306  and  _307
REMARK  124  A    between atoms: _310  and  _312
REMARK  125  A    between atoms: _312  and  _313
REMARK  126  A    between atoms: _312  and  _315
REMARK  127  A    between atoms: _315  and  _316
REMARK  128  A    between atoms: _319  and  _321
REMARK  129  A    between atoms: _321  and  _322
REMARK  130  A    between atoms: _321  and  _324
REMARK  131  A    between atoms: _324  and  _325
REMARK  132  A    between atoms: _335  and  _337
REMARK  133  A    between atoms: _337  and  _338
REMARK  134  A    between atoms: _337  and  _340
REMARK  135  A    between atoms: _340  and  _341
REMARK  136  A    between atoms: _341  and  _342
REMARK  137  A    between atoms: _345  and  _347
REMARK  138  A    between atoms: _347  and  _348
REMARK  139  A    between atoms: _347  and  _350
REMARK  140  A    between atoms: _350  and  _351
REMARK  141  A    between atoms: _357  and  _359
REMARK  142  A    between atoms: _359  and  _360
REMARK  143  A    between atoms: _363  and  _365
REMARK  144  A    between atoms: _365  and  _366
REMARK  145  A    between atoms: _365  and  _368
REMARK  146  A    between atoms: _368  and  _369
REMARK  147  A    between atoms: _371  and  _373
REMARK  148  A    between atoms: _373  and  _374
REMARK  149  A    between atoms: _377  and  _379
REMARK  150  A    between atoms: _379  and  _380
REMARK  151  A    between atoms: _379  and  _382
REMARK  152  A    between atoms: _382  and  _383
REMARK  153  A    between atoms: _386  and  _388
REMARK  154  A    between atoms: _388  and  _389
REMARK  155  A    between atoms: _388  and  _391
REMARK  156  A    between atoms: _391  and  _392
REMARK  157  A    between atoms: _398  and  _400
REMARK  158  A    between atoms: _400  and  _401
REMARK  159  A    between atoms: _400  and  _403
REMARK  160  A    between atoms: _403  and  _404
REMARK  161  A    between atoms: _404  and  _405
REMARK  162  A    between atoms: _407  and  _409
REMARK  163  A    between atoms: _409  and  _410
REMARK  164  A    between atoms: _409  and  _412
REMARK  165  A    between atoms: _412  and  _413
REMARK  166  A    between atoms: _418  and  _419
REMARK  167  A    between atoms: _421  and  _423
REMARK  168  A    between atoms: _423  and  _424
REMARK  169  A    between atoms: _423  and  _426
REMARK  170  A    between atoms: _426  and  _427
REMARK  171  A    between atoms: _430  and  _432
REMARK  172  A    between atoms: _432  and  _433
REMARK  173  A    between atoms: _432  and  _435
REMARK  174  A    between atoms: _435  and  _436
REMARK  175  A    between atoms: _442  and  _444
REMARK  176  A    between atoms: _444  and  _445
REMARK  177  A    between atoms: _444  and  _447
REMARK  178  A    between atoms: _447  and  _448
REMARK  179  A    between atoms: _448  and  _449
REMARK  180  A    between atoms: _454  and  _456
REMARK  181  A    between atoms: _456  and  _457
REMARK  182  A    between atoms: _456  and  _459
REMARK  183  A    between atoms: _459  and  _460
REMARK  184  A    between atoms: _463  and  _465
REMARK  185  A    between atoms: _465  and  _466
REMARK  186  A    between atoms: _469  and  _471
REMARK  187  A    between atoms: _471  and  _472
REMARK  188  A    between atoms: _471  and  _474
REMARK  189  A    between atoms: _474  and  _475
REMARK  190  A    between atoms: _475  and  _476
REMARK  191  A    between atoms: _478  and  _480
REMARK  192  A    between atoms: _480  and  _481
REMARK  193  A    between atoms: _480  and  _483
REMARK  194  A    between atoms: _483  and  _484
REMARK  195  A    between atoms: _489  and  _490
REMARK  196  A    between atoms: _492  and  _494
REMARK  197  A    between atoms: _494  and  _495
REMARK  198  A    between atoms: _497  and  _499
REMARK  199  A    between atoms: _499  and  _500
REMARK  200  A    between atoms: _499  and  _502
REMARK  201  A    between atoms: _502  and  _503
REMARK  202  A    between atoms: _503  and  _504
REMARK  203  A    between atoms: _504  and  _505
REMARK  204  A    between atoms: _514  and  _516
REMARK  205  A    between atoms: _516  and  _517
REMARK  206  A    between atoms: _516  and  _519
REMARK  207  A    between atoms: _519  and  _520
REMARK  208  A    between atoms: _530  and  _532
REMARK  209  A    between atoms: _532  and  _533
REMARK  210  A    between atoms: _532  and  _535
REMARK  211  A    between atoms: _535  and  _536
REMARK  212  A    between atoms: _536  and  _537
REMARK  213  A    between atoms: _540  and  _542
REMARK  214  A    between atoms: _542  and  _543
REMARK  215  A    between atoms: _542  and  _545
REMARK  216  A    between atoms: _545  and  _546
REMARK  217  A    between atoms: _551  and  _553
REMARK  218  A    between atoms: _553  and  _554
REMARK  219  A    between atoms: _556  and  _558
REMARK  220  A    between atoms: _558  and  _559
REMARK  221  A    between atoms: _558  and  _561
REMARK  222  A    between atoms: _561  and  _562
REMARK  223  A    between atoms: _565  and  _567
REMARK  224  A    between atoms: _567  and  _568
REMARK  225  A    between atoms: _567  and  _570
REMARK  226  A    between atoms: _573  and  _575
REMARK  227  A    between atoms: _575  and  _576
REMARK  228  A    between atoms: _575  and  _578
REMARK  229  A    between atoms: _578  and  _579
REMARK  230  A    between atoms: _582  and  _584
REMARK  231  A    between atoms: _584  and  _585
REMARK  232  A    between atoms: _584  and  _587
REMARK  233  A    between atoms: _587  and  _588
REMARK  234  A    between atoms: _594  and  _596
REMARK  235  A    between atoms: _596  and  _597
REMARK  236  A    between atoms: _596  and  _599
REMARK  237  A    between atoms: _599  and  _600
REMARK  238  A    between atoms: _602  and  _604
REMARK  239  A    between atoms: _604  and  _605
REMARK  240  A    between atoms: _604  and  _607
REMARK  241  A    between atoms: _607  and  _608
REMARK  242  A    between atoms: _618  and  _620
REMARK  243  A    between atoms: _620  and  _621
REMARK  244  A    between atoms: _620  and  _623
REMARK  245  A    between atoms: _623  and  _624
REMARK  246  A    between atoms: _624  and  _625
REMARK  247  A    between atoms: _628  and  _630
REMARK  248  A    between atoms: _630  and  _631
REMARK  249  A    between atoms: _630  and  _633
REMARK  250  A    between atoms: _633  and  _634
REMARK  251  A    between atoms: _637  and  _639
REMARK  252  A    between atoms: _639  and  _640
REMARK                            x       y       z     vdW  Elec       q    Type
REMARK                         _______ _______ _______ _____ _____    ______ ____
ROOT
ATOM      1  CB  PHE A   1      32.101  74.655   9.784  0.00  0.00    +0.051 C 
ENDROOT
BRANCH   1   2
ATOM      2  CG  PHE A   1      33.569  74.716  10.128  0.00  0.00    -0.020 A 
ATOM      3  CD2 PHE A   1      34.154  75.914  10.569  0.00  0.00    -0.004 A 
ATOM      4  CE2 PHE A   1      35.570  75.965  10.856  0.00  0.00    -0.000 A 
ATOM      5  CZ  PHE A   1      36.333  74.809  10.730  0.00  0.00    -0.000 A 
ATOM      6  CE1 PHE A   1      35.738  73.635  10.253  0.00  0.00    -0.000 A 
ATOM      7  CD1 PHE A   1      34.388  73.586   9.958  0.00  0.00    -0.004 A 
ENDBRANCH   1   2
BRANCH   1   8
ATOM      8  CA  PHE A   1      31.189  74.970  10.981  0.00  0.00    +0.137 C 
BRANCH   8   9
ATOM      9  N   PHE A   1      31.336  73.967  12.011  0.00  0.00    -0.239 NA
ATOM     10  H   PHE A   1      31.561  72.987  11.746  0.00  0.00    +0.142 HD
ENDBRANCH   8   9
BRANCH   8  11
ATOM     11  C   PHE A   1      29.740  75.147  10.605  0.00  0.00    +0.224 C 
ATOM     12  O   PHE A   1      29.144  74.346   9.854  0.00  0.00    -0.287 OA
ENDBRANCH   8  11
ENDBRANCH   1   8
TORSDOF 4
REMARK  Name = ../refined-set-2016/2wm0/2wm0_pocket.pdb
REMARK  252 active torsions:
REMARK  status: ('A' for Active; 'I' for Inactive)
REMARK    1  A    between atoms: _1  and  _3
REMARK    2  A    between atoms: _3  and  _4
REMARK    3  A    between atoms: _3  and  _6
REMARK    4  A    between atoms: _6  and  _7
REMARK    5  A    between atoms: _12  and  _13
REMARK    6  A    between atoms: _15  and  _17
REMARK    7  A    between atoms: _17  and  _18
REMARK    8  A    between atoms: _17  and  _20
REMARK    9  A    between atoms: _23  and  _25
REMARK   10  A    between atoms: _25  and  _26
REMARK   11  A    between atoms: _25  and  _28
REMARK   12  A    between atoms: _28  and  _29
REMARK   13  A    between atoms: _29  and  _30
REMARK   14  A    between atoms: _33  and  _35
REMARK   15  A    between atoms: _35  and  _36
REMARK   16  A    between atoms: _35  and  _38
REMARK   17  A    between atoms: _38  and  _39
REMARK   18  A    between atoms: _49  and  _51
REMARK   19  A    between atoms: _51  and  _52
REMARK   20  A    between atoms: _54  and  _56
REMARK   21  A    between atoms: _56  and  _57
REMARK   22  A    between atoms: _56  and  _59
REMARK   23  A    between atoms: _59  and  _60
REMARK   24  A    between atoms: _65  and  _66
REMARK   25  A    between atoms: _68  and  _70
REMARK   26  A    between atoms: _70  and  _71
REMARK   27  A    between atoms: _73  and  _75
REMARK   28  A    between atoms: _75  and  _76
REMARK   29  A    between atoms: _75  and  _78
REMARK   30  A    between atoms: _78  and  _79
REMARK   31  A    between atoms: _79  and  _80
REMARK   32  A    between atoms: _80  and  _81
REMARK   33  A    between atoms: _90  and  _92
REMARK   34  A    between atoms: _92  and  _93
REMARK   35  A    between atoms: _92  and  _95
REMARK   36  A    between atoms: _95  and  _96
REMARK   37  A    between atoms: _99  and  _101
REMARK   38  A    between atoms: _101  and  _102
REMARK   39  A    between atoms: _104  and  _106
REMARK   40  A    between atoms: _106  and  _107
REMARK   41  A    between atoms: _106  and  _109
REMARK   42  A    between atoms: _109  and  _110
REMARK   43  A    between atoms: _116  and  _118
REMARK   44  A    between atoms: _118  and  _119
REMARK   45  A    between atoms: _118  and  _121
REMARK   46  A    between atoms: _121  and  _122
REMARK   47  A    between atoms: _126  and  _127
REMARK   48  A    between atoms: _132  and  _134
REMARK   49  A    between atoms: _134  and  _135
REMARK   50  A    between atoms: _134  and  _137
REMARK   51  A    between atoms: _137  and  _138
REMARK   52  A    between atoms: _140  and  _142
REMARK   53  A    between atoms: _142  and  _143
REMARK   54  A    between atoms: _142  and  _145
REMARK   55  A    between atoms: _145  and  _146
REMARK   56  A    between atoms: _149  and  _151
REMARK   57  A    between atoms: _151  and  _152
REMARK   58  A    between atoms: _151  and  _154
REMARK   59  A    between atoms: _154  and  _155
REMARK   60  A    between atoms: _155  and  _156
REMARK   61  A    between atoms: _159  and  _161
REMARK   62  A    between atoms: _161  and  _162
REMARK   63  A    between atoms: _161  and  _164
REMARK   64  A    between atoms: _164  and  _165
REMARK   65  A    between atoms: _168  and  _170
REMARK   66  A    between atoms: _170  and  _171
REMARK   67  A    between atoms: _170  and  _173
REMARK   68  A    between atoms: _173  and  _174
REMARK   69  A    between atoms: _174  and  _175
REMARK   70  A    between atoms: _178  and  _180
REMARK   71  A    between atoms: _180  and  _181
REMARK   72  A    between atoms: _183  and  _185
REMARK   73  A    between atoms: _185  and  _186
REMARK   74  A    between atoms: _185  and  _188
REMARK   75  A    between atoms: _188  and  _189
REMARK   76  A    between atoms: _191  and  _193
REMARK   77  A    between atoms: _193  and  _194
REMARK   78  A    between atoms: _193  and  _196
REMARK   79  A    between atoms: _196  and  _197
REMARK   80  A    between atoms: _203  and  _205
REMARK   81  A    between atoms: _205  and  _206
REMARK   82  A    between atoms: _205  and  _208
REMARK   83  A    between atoms: _208  and  _209
REMARK   84  A    between atoms: _214  and  _216
REMARK   85  A    between atoms: _216  and  _217
REMARK   86  A    between atoms: _216  and  _219
REMARK   87  A    between atoms: _219  and  _220
REMARK   88  A    between atoms: _223  and  _225
REMARK   89  A    between atoms: _225  and  _226
REMARK   90  A    between atoms: _225  and  _228
REMARK   91  A    between atoms: _228  and  _229
REMARK   92  A    between atoms: _231  and  _233
REMARK   93  A    between atoms: _233  and  _234
REMARK   94  A    between atoms: _233  and  _236
REMARK   95  A    between atoms: _236  and  _237
REMARK   96  A    between atoms: _240  and  _242
REMARK   97  A    between atoms: _242  and  _243
REMARK   98  A    between atoms: _245  and  _247
REMARK   99  A    between atoms: _247  and  _248
REMARK  100  A    between atoms: _250  and  _252
REMARK  101  A    between atoms: _252  and  _253
REMARK  102  A    between atoms: _252  and  _255
REMARK  103  A    between atoms: _255  and  _256
REMARK  104  A    between atoms: _266  and  _268
REMARK  105  A    between atoms: _268  and  _269
REMARK  106  A    between atoms: _268  and  _271
REMARK  107  A    between atoms: _271  and  _272
REMARK  108  A    between atoms: _275  and  _277
REMARK  109  A    between atoms: _277  and  _278
REMARK  110  A    between atoms: _277  and  _280
REMARK  111  A    between atoms: _280  and  _281
REMARK  112  A    between atoms: _284  and  _286
REMARK  113  A    between atoms: _286  and  _287
REMARK  114  A    between atoms: _286  and  _289
REMARK  115  A    between atoms: _289  and  _290
REMARK  116  A    between atoms: _292  and  _294
REMARK  117  A    between atoms: _294  and  _295
REMARK  118  A    between atoms: _294  and  _297
REMARK  119  A    between atoms: _297  and  _298
REMARK  120  A    between atoms: _301  and  _303
REMARK  121  A    between atoms: _303  and  _304
REMARK  122  A    between atoms: _303  and  _306
REMARK  123  A    between atoms: _306  and  _307
REMARK  124  A    between atoms: _310  and  _312
REMARK  125  A    between atoms: _312  and  _313
REMARK  126  A    between atoms: _312  and  _315
REMARK  127  A    between atoms: _315  and  _316
REMARK  128  A    between atoms: _319  and  _321
REMARK  129  A    between atoms: _321  and  _322
REMARK  130  A    between atoms: _321  and  _324
REMARK  131  A    between atoms: _324  and  _325
REMARK  132  A    between atoms: _335  and  _337
REMARK  133  A    between atoms: _337  and  _338
REMARK  134  A    between atoms: _337  and  _340
REMARK  135  A    between atoms: _340  and  _341
REMARK  136  A    between atoms: _341  and  _342
REMARK  137  A    between atoms: _345  and  _347
REMARK  138  A    between atoms: _347  and  _348
REMARK  139  A    between atoms: _347  and  _350
REMARK  140  A    between atoms: _350  and  _351
REMARK  141  A    between atoms: _357  and  _359
REMARK  142  A    between atoms: _359  and  _360
REMARK  143  A    between atoms: _363  and  _365
REMARK  144  A    between atoms: _365  and  _366
REMARK  145  A    between atoms: _365  and  _368
REMARK  146  A    between atoms: _368  and  _369
REMARK  147  A    between atoms: _371  and  _373
REMARK  148  A    between atoms: _373  and  _374
REMARK  149  A    between atoms: _377  and  _379
REMARK  150  A    between atoms: _379  and  _380
REMARK  151  A    between atoms: _379  and  _382
REMARK  152  A    between atoms: _382  and  _383
REMARK  153  A    between atoms: _386  and  _388
REMARK  154  A    between atoms: _388  and  _389
REMARK  155  A    between atoms: _388  and  _391
REMARK  156  A    between atoms: _391  and  _392
REMARK  157  A    between atoms: _398  and  _400
REMARK  158  A    between atoms: _400  and  _401
REMARK  159  A    between atoms: _400  and  _403
REMARK  160  A    between atoms: _403  and  _404
REMARK  161  A    between atoms: _404  and  _405
REMARK  162  A    between atoms: _407  and  _409
REMARK  163  A    between atoms: _409  and  _410
REMARK  164  A    between atoms: _409  and  _412
REMARK  165  A    between atoms: _412  and  _413
REMARK  166  A    between atoms: _418  and  _419
REMARK  167  A    between atoms: _421  and  _423
REMARK  168  A    between atoms: _423  and  _424
REMARK  169  A    between atoms: _423  and  _426
REMARK  170  A    between atoms: _426  and  _427
REMARK  171  A    between atoms: _430  and  _432
REMARK  172  A    between atoms: _432  and  _433
REMARK  173  A    between atoms: _432  and  _435
REMARK  174  A    between atoms: _435  and  _436
REMARK  175  A    between atoms: _442  and  _444
REMARK  176  A    between atoms: _444  and  _445
REMARK  177  A    between atoms: _444  and  _447
REMARK  178  A    between atoms: _447  and  _448
REMARK  179  A    between atoms: _448  and  _449
REMARK  180  A    between atoms: _454  and  _456
REMARK  181  A    between atoms: _456  and  _457
REMARK  182  A    between atoms: _456  and  _459
REMARK  183  A    between atoms: _459  and  _460
REMARK  184  A    between atoms: _463  and  _465
REMARK  185  A    between atoms: _465  and  _466
REMARK  186  A    between atoms: _469  and  _471
REMARK  187  A    between atoms: _471  and  _472
REMARK  188  A    between atoms: _471  and  _474
REMARK  189  A    between atoms: _474  and  _475
REMARK  190  A    between atoms: _475  and  _476
REMARK  191  A    between atoms: _478  and  _480
REMARK  192  A    between atoms: _480  and  _481
REMARK  193  A    between atoms: _480  and  _483
REMARK  194  A    between atoms: _483  and  _484
REMARK  195  A    between atoms: _489  and  _490
REMARK  196  A    between atoms: _492  and  _494
REMARK  197  A    between atoms: _494  and  _495
REMARK  198  A    between atoms: _497  and  _499
REMARK  199  A    between atoms: _499  and  _500
REMARK  200  A    between atoms: _499  and  _502
REMARK  201  A    between atoms: _502  and  _503
REMARK  202  A    between atoms: _503  and  _504
REMARK  203  A    between atoms: _504  and  _505
REMARK  204  A    between atoms: _514  and  _516
REMARK  205  A    between atoms: _516  and  _517
REMARK  206  A    between atoms: _516  and  _519
REMARK  207  A    between atoms: _519  and  _520
REMARK  208  A    between atoms: _530  and  _532
REMARK  209  A    between atoms: _532  and  _533
REMARK  210  A    between atoms: _532  and  _535
REMARK  211  A    between atoms: _535  and  _536
REMARK  212  A    between atoms: _536  and  _537
REMARK  213  A    between atoms: _540  and  _542
REMARK  214  A    between atoms: _542  and  _543
REMARK  215  A    between atoms: _542  and  _545
REMARK  216  A    between atoms: _545  and  _546
REMARK  217  A    between atoms: _551  and  _553
REMARK  218  A    between atoms: _553  and  _554
REMARK  219  A    between atoms: _556  and  _558
REMARK  220  A    between atoms: _558  and  _559
REMARK  221  A    between atoms: _558  and  _561
REMARK  222  A    between atoms: _561  and  _562
REMARK  223  A    between atoms: _565  and  _567
REMARK  224  A    between atoms: _567  and  _568
REMARK  225  A    between atoms: _567  and  _570
REMARK  226  A    between atoms: _573  and  _575
REMARK  227  A    between atoms: _575  and  _576
REMARK  228  A    between atoms: _575  and  _578
REMARK  229  A    between atoms: _578  and  _579
REMARK  230  A    between atoms: _582  and  _584
REMARK  231  A    between atoms: _584  and  _585
REMARK  232  A    between atoms: _584  and  _587
REMARK  233  A    between atoms: _587  and  _588
REMARK  234  A    between atoms: _594  and  _596
REMARK  235  A    between atoms: _596  and  _597
REMARK  236  A    between atoms: _596  and  _599
REMARK  237  A    between atoms: _599  and  _600
REMARK  238  A    between atoms: _602  and  _604
REMARK  239  A    between atoms: _604  and  _605
REMARK  240  A    between atoms: _604  and  _607
REMARK  241  A    between atoms: _607  and  _608
REMARK  242  A    between atoms: _618  and  _620
REMARK  243  A    between atoms: _620  and  _621
REMARK  244  A    between atoms: _620  and  _623
REMARK  245  A    between atoms: _623  and  _624
REMARK  246  A    between atoms: _624  and  _625
REMARK  247  A    between atoms: _628  and  _630
REMARK  248  A    between atoms: _630  and  _631
REMARK  249  A    between atoms: _630  and  _633
REMARK  250  A    between atoms: _633  and  _634
REMARK  251  A    between atoms: _637  and  _639
REMARK  252  A    between atoms: _639  and  _640
REMARK                            x       y       z     vdW  Elec       q    Type
REMARK                         _______ _______ _______ _____ _____    ______ ____
ROOT
ATOM      1  CA  MET A   1      26.525  76.657   7.306  0.00  0.00    +0.134 C 
ENDROOT
BRANCH   1   2
ATOM      2  N   MET A   1      26.686  76.228   8.704  0.00  0.00    -0.239 NA
ATOM      3  H   MET A   1      26.240  75.345   9.024  0.00  0.00    +0.142 HD
ENDBRANCH   1   2
BRANCH   1   4
ATOM      4  C   MET A   1      25.379  77.677   7.194  0.00  0.00    +0.224 C 
ATOM      5  O   MET A   1      24.352  77.436   6.534  0.00  0.00    -0.287 OA
ENDBRANCH   1   4
BRANCH   1   6
ATOM      6  CB  MET A   1      26.372  75.464   6.313  0.00  0.00    +0.037 C 
BRANCH   6   7
ATOM      7  CG  MET A   1      27.638  74.578   6.297  0.00  0.00    +0.059 C 
BRANCH   7   8
ATOM      8  SD  MET A   1      27.637  73.422   4.875  0.00  0.00    -0.139 S 
ATOM      9  CE  MET A   1      26.204  72.517   5.358  0.00  0.00    +0.069 C 
ENDBRANCH   7   8
ENDBRANCH   6   7
ENDBRANCH   1   6
TORSDOF 5
REMARK  Name = ../refined-set-2016/2wm0/2wm0_pocket.pdb
REMARK  252 active torsions:
REMARK  status: ('A' for Active; 'I' for Inactive)
REMARK    1  A    between atoms: _1  and  _3
REMARK    2  A    between atoms: _3  and  _4
REMARK    3  A    between atoms: _3  and  _6
REMARK    4  A    between atoms: _6  and  _7
REMARK    5  A    between atoms: _12  and  _13
REMARK    6  A    between atoms: _15  and  _17
REMARK    7  A    between atoms: _17  and  _18
REMARK    8  A    between atoms: _17  and  _20
REMARK    9  A    between atoms: _23  and  _25
REMARK   10  A    between atoms: _25  and  _26
REMARK   11  A    between atoms: _25  and  _28
REMARK   12  A    between atoms: _28  and  _29
REMARK   13  A    between atoms: _29  and  _30
REMARK   14  A    between atoms: _33  and  _35
REMARK   15  A    between atoms: _35  and  _36
REMARK   16  A    between atoms: _35  and  _38
REMARK   17  A    between atoms: _38  and  _39
REMARK   18  A    between atoms: _49  and  _51
REMARK   19  A    between atoms: _51  and  _52
REMARK   20  A    between atoms: _54  and  _56
REMARK   21  A    between atoms: _56  and  _57
REMARK   22  A    between atoms: _56  and  _59
REMARK   23  A    between atoms: _59  and  _60
REMARK   24  A    between atoms: _65  and  _66
REMARK   25  A    between atoms: _68  and  _70
REMARK   26  A    between atoms: _70  and  _71
REMARK   27  A    between atoms: _73  and  _75
REMARK   28  A    between atoms: _75  and  _76
REMARK   29  A    between atoms: _75  and  _78
REMARK   30  A    between atoms: _78  and  _79
REMARK   31  A    between atoms: _79  and  _80
REMARK   32  A    between atoms: _80  and  _81
REMARK   33  A    between atoms: _90  and  _92
REMARK   34  A    between atoms: _92  and  _93
REMARK   35  A    between atoms: _92  and  _95
REMARK   36  A    between atoms: _95  and  _96
REMARK   37  A    between atoms: _99  and  _101
REMARK   38  A    between atoms: _101  and  _102
REMARK   39  A    between atoms: _104  and  _106
REMARK   40  A    between atoms: _106  and  _107
REMARK   41  A    between atoms: _106  and  _109
REMARK   42  A    between atoms: _109  and  _110
REMARK   43  A    between atoms: _116  and  _118
REMARK   44  A    between atoms: _118  and  _119
REMARK   45  A    between atoms: _118  and  _121
REMARK   46  A    between atoms: _121  and  _122
REMARK   47  A    between atoms: _126  and  _127
REMARK   48  A    between atoms: _132  and  _134
REMARK   49  A    between atoms: _134  and  _135
REMARK   50  A    between atoms: _134  and  _137
REMARK   51  A    between atoms: _137  and  _138
REMARK   52  A    between atoms: _140  and  _142
REMARK   53  A    between atoms: _142  and  _143
REMARK   54  A    between atoms: _142  and  _145
REMARK   55  A    between atoms: _145  and  _146
REMARK   56  A    between atoms: _149  and  _151
REMARK   57  A    between atoms: _151  and  _152
REMARK   58  A    between atoms: _151  and  _154
REMARK   59  A    between atoms: _154  and  _155
REMARK   60  A    between atoms: _155  and  _156
REMARK   61  A    between atoms: _159  and  _161
REMARK   62  A    between atoms: _161  and  _162
REMARK   63  A    between atoms: _161  and  _164
REMARK   64  A    between atoms: _164  and  _165
REMARK   65  A    between atoms: _168  and  _170
REMARK   66  A    between atoms: _170  and  _171
REMARK   67  A    between atoms: _170  and  _173
REMARK   68  A    between atoms: _173  and  _174
REMARK   69  A    between atoms: _174  and  _175
REMARK   70  A    between atoms: _178  and  _180
REMARK   71  A    between atoms: _180  and  _181
REMARK   72  A    between atoms: _183  and  _185
REMARK   73  A    between atoms: _185  and  _186
REMARK   74  A    between atoms: _185  and  _188
REMARK   75  A    between atoms: _188  and  _189
REMARK   76  A    between atoms: _191  and  _193
REMARK   77  A    between atoms: _193  and  _194
REMARK   78  A    between atoms: _193  and  _196
REMARK   79  A    between atoms: _196  and  _197
REMARK   80  A    between atoms: _203  and  _205
REMARK   81  A    between atoms: _205  and  _206
REMARK   82  A    between atoms: _205  and  _208
REMARK   83  A    between atoms: _208  and  _209
REMARK   84  A    between atoms: _214  and  _216
REMARK   85  A    between atoms: _216  and  _217
REMARK   86  A    between atoms: _216  and  _219
REMARK   87  A    between atoms: _219  and  _220
REMARK   88  A    between atoms: _223  and  _225
REMARK   89  A    between atoms: _225  and  _226
REMARK   90  A    between atoms: _225  and  _228
REMARK   91  A    between atoms: _228  and  _229
REMARK   92  A    between atoms: _231  and  _233
REMARK   93  A    between atoms: _233  and  _234
REMARK   94  A    between atoms: _233  and  _236
REMARK   95  A    between atoms: _236  and  _237
REMARK   96  A    between atoms: _240  and  _242
REMARK   97  A    between atoms: _242  and  _243
REMARK   98  A    between atoms: _245  and  _247
REMARK   99  A    between atoms: _247  and  _248
REMARK  100  A    between atoms: _250  and  _252
REMARK  101  A    between atoms: _252  and  _253
REMARK  102  A    between atoms: _252  and  _255
REMARK  103  A    between atoms: _255  and  _256
REMARK  104  A    between atoms: _266  and  _268
REMARK  105  A    between atoms: _268  and  _269
REMARK  106  A    between atoms: _268  and  _271
REMARK  107  A    between atoms: _271  and  _272
REMARK  108  A    between atoms: _275  and  _277
REMARK  109  A    between atoms: _277  and  _278
REMARK  110  A    between atoms: _277  and  _280
REMARK  111  A    between atoms: _280  and  _281
REMARK  112  A    between atoms: _284  and  _286
REMARK  113  A    between atoms: _286  and  _287
REMARK  114  A    between atoms: _286  and  _289
REMARK  115  A    between atoms: _289  and  _290
REMARK  116  A    between atoms: _292  and  _294
REMARK  117  A    between atoms: _294  and  _295
REMARK  118  A    between atoms: _294  and  _297
REMARK  119  A    between atoms: _297  and  _298
REMARK  120  A    between atoms: _301  and  _303
REMARK  121  A    between atoms: _303  and  _304
REMARK  122  A    between atoms: _303  and  _306
REMARK  123  A    between atoms: _306  and  _307
REMARK  124  A    between atoms: _310  and  _312
REMARK  125  A    between atoms: _312  and  _313
REMARK  126  A    between atoms: _312  and  _315
REMARK  127  A    between atoms: _315  and  _316
REMARK  128  A    between atoms: _319  and  _321
REMARK  129  A    between atoms: _321  and  _322
REMARK  130  A    between atoms: _321  and  _324
REMARK  131  A    between atoms: _324  and  _325
REMARK  132  A    between atoms: _335  and  _337
REMARK  133  A    between atoms: _337  and  _338
REMARK  134  A    between atoms: _337  and  _340
REMARK  135  A    between atoms: _340  and  _341
REMARK  136  A    between atoms: _341  and  _342
REMARK  137  A    between atoms: _345  and  _347
REMARK  138  A    between atoms: _347  and  _348
REMARK  139  A    between atoms: _347  and  _350
REMARK  140  A    between atoms: _350  and  _351
REMARK  141  A    between atoms: _357  and  _359
REMARK  142  A    between atoms: _359  and  _360
REMARK  143  A    between atoms: _363  and  _365
REMARK  144  A    between atoms: _365  and  _366
REMARK  145  A    between atoms: _365  and  _368
REMARK  146  A    between atoms: _368  and  _369
REMARK  147  A    between atoms: _371  and  _373
REMARK  148  A    between atoms: _373  and  _374
REMARK  149  A    between atoms: _377  and  _379
REMARK  150  A    between atoms: _379  and  _380
REMARK  151  A    between atoms: _379  and  _382
REMARK  152  A    between atoms: _382  and  _383
REMARK  153  A    between atoms: _386  and  _388
REMARK  154  A    between atoms: _388  and  _389
REMARK  155  A    between atoms: _388  and  _391
REMARK  156  A    between atoms: _391  and  _392
REMARK  157  A    between atoms: _398  and  _400
REMARK  158  A    between atoms: _400  and  _401
REMARK  159  A    between atoms: _400  and  _403
REMARK  160  A    between atoms: _403  and  _404
REMARK  161  A    between atoms: _404  and  _405
REMARK  162  A    between atoms: _407  and  _409
REMARK  163  A    between atoms: _409  and  _410
REMARK  164  A    between atoms: _409  and  _412
REMARK  165  A    between atoms: _412  and  _413
REMARK  166  A    between atoms: _418  and  _419
REMARK  167  A    between atoms: _421  and  _423
REMARK  168  A    between atoms: _423  and  _424
REMARK  169  A    between atoms: _423  and  _426
REMARK  170  A    between atoms: _426  and  _427
REMARK  171  A    between atoms: _430  and  _432
REMARK  172  A    between atoms: _432  and  _433
REMARK  173  A    between atoms: _432  and  _435
REMARK  174  A    between atoms: _435  and  _436
REMARK  175  A    between atoms: _442  and  _444
REMARK  176  A    between atoms: _444  and  _445
REMARK  177  A    between atoms: _444  and  _447
REMARK  178  A    between atoms: _447  and  _448
REMARK  179  A    between atoms: _448  and  _449
REMARK  180  A    between atoms: _454  and  _456
REMARK  181  A    between atoms: _456  and  _457
REMARK  182  A    between atoms: _456  and  _459
REMARK  183  A    between atoms: _459  and  _460
REMARK  184  A    between atoms: _463  and  _465
REMARK  185  A    between atoms: _465  and  _466
REMARK  186  A    between atoms: _469  and  _471
REMARK  187  A    between atoms: _471  and  _472
REMARK  188  A    between atoms: _471  and  _474
REMARK  189  A    between atoms: _474  and  _475
REMARK  190  A    between atoms: _475  and  _476
REMARK  191  A    between atoms: _478  and  _480
REMARK  192  A    between atoms: _480  and  _481
REMARK  193  A    between atoms: _480  and  _483
REMARK  194  A    between atoms: _483  and  _484
REMARK  195  A    between atoms: _489  and  _490
REMARK  196  A    between atoms: _492  and  _494
REMARK  197  A    between atoms: _494  and  _495
REMARK  198  A    between atoms: _497  and  _499
REMARK  199  A    between atoms: _499  and  _500
REMARK  200  A    between atoms: _499  and  _502
REMARK  201  A    between atoms: _502  and  _503
REMARK  202  A    between atoms: _503  and  _504
REMARK  203  A    between atoms: _504  and  _505
REMARK  204  A    between atoms: _514  and  _516
REMARK  205  A    between atoms: _516  and  _517
REMARK  206  A    between atoms: _516  and  _519
REMARK  207  A    between atoms: _519  and  _520
REMARK  208  A    between atoms: _530  and  _532
REMARK  209  A    between atoms: _532  and  _533
REMARK  210  A    between atoms: _532  and  _535
REMARK  211  A    between atoms: _535  and  _536
REMARK  212  A    between atoms: _536  and  _537
REMARK  213  A    between atoms: _540  and  _542
REMARK  214  A    between atoms: _542  and  _543
REMARK  215  A    between atoms: _542  and  _545
REMARK  216  A    between atoms: _545  and  _546
REMARK  217  A    between atoms: _551  and  _553
REMARK  218  A    between atoms: _553  and  _554
REMARK  219  A    between atoms: _556  and  _558
REMARK  220  A    between atoms: _558  and  _559
REMARK  221  A    between atoms: _558  and  _561
REMARK  222  A    between atoms: _561  and  _562
REMARK  223  A    between atoms: _565  and  _567
REMARK  224  A    between atoms: _567  and  _568
REMARK  225  A    between atoms: _567  and  _570
REMARK  226  A    between atoms: _573  and  _575
REMARK  227  A    between atoms: _575  and  _576
REMARK  228  A    between atoms: _575  and  _578
REMARK  229  A    between atoms: _578  and  _579
REMARK  230  A    between atoms: _582  and  _584
REMARK  231  A    between atoms: _584  and  _585
REMARK  232  A    between atoms: _584  and  _587
REMARK  233  A    between atoms: _587  and  _588
REMARK  234  A    between atoms: _594  and  _596
REMARK  235  A    between atoms: _596  and  _597
REMARK  236  A    between atoms: _596  and  _599
REMARK  237  A    between atoms: _599  and  _600
REMARK  238  A    between atoms: _602  and  _604
REMARK  239  A    between atoms: _604  and  _605
REMARK  240  A    between atoms: _604  and  _607
REMARK  241  A    between atoms: _607  and  _608
REMARK  242  A    between atoms: _618  and  _620
REMARK  243  A    between atoms: _620  and  _621
REMARK  244  A    between atoms: _620  and  _623
REMARK  245  A    between atoms: _623  and  _624
REMARK  246  A    between atoms: _624  and  _625
REMARK  247  A    between atoms: _628  and  _630
REMARK  248  A    between atoms: _630  and  _631
REMARK  249  A    between atoms: _630  and  _633
REMARK  250  A    between atoms: _633  and  _634
REMARK  251  A    between atoms: _637  and  _639
REMARK  252  A    between atoms: _639  and  _640
REMARK                            x       y       z     vdW  Elec       q    Type
REMARK                         _______ _______ _______ _____ _____    ______ ____
ROOT
ATOM      1  CA  TYR A   1      24.125  80.540   4.107  0.00  0.00    +0.149 C 
ENDROOT
BRANCH   1   2
ATOM      2  C   TYR A   1      23.234  79.575   3.340  0.00  0.00    +0.239 C 
ATOM      3  O   TYR A   1      22.779  78.564   3.939  0.00  0.00    -0.274 OA
ATOM      4  N   ASP A   2      22.955  79.869   2.066  0.00  0.00    -0.298 N 
ATOM      5  H   ASP A   2      23.425  80.690   1.635  0.00  0.00    +0.150 HD
BRANCH   4   6
ATOM      6  CA  ASP A   2      22.014  79.088   1.240  0.00  0.00    +0.148 C 
BRANCH   6   7
ATOM      7  C   ASP A   2      20.621  78.980   1.871  0.00  0.00    +0.227 C 
ATOM      8  O   ASP A   2      19.901  77.991   1.616  0.00  0.00    -0.286 OA
ENDBRANCH   6   7
BRANCH   6   9
ATOM      9  CB  ASP A   2      22.536  77.662   0.936  0.00  0.00    +0.142 C 
BRANCH   9  10
ATOM     10  CG  ASP A   2      23.877  77.647   0.242  0.00  0.00    +0.367 C 
ATOM     11  OD2 ASP A   2      24.585  76.617   0.380  0.00  0.00    -0.246 OA
ATOM     12  OD1 ASP A   2      24.262  78.625  -0.460  0.00  0.00    -0.246 OA
ENDBRANCH   9  10
ENDBRANCH   6   9
ENDBRANCH   4   6
ENDBRANCH   1   2
BRANCH   1  13
ATOM     13  N   TYR A   1      24.258  79.985   5.468  0.00  0.00    -0.238 NA
ATOM     14  H   TYR A   1      24.065  78.971   5.598  0.00  0.00    +0.142 HD
ENDBRANCH   1  13
BRANCH   1  15
ATOM     15  CB  TYR A   1      25.486  80.757   3.427  0.00  0.00    +0.053 C 
BRANCH  15  16
ATOM     16  CG  TYR A   1      26.524  79.681   3.683  0.00  0.00    -0.020 A 
ATOM     17  CD2 TYR A   1      27.598  79.890   4.572  0.00  0.00    -0.001 A 
ATOM     18  CE2 TYR A   1      28.567  78.892   4.794  0.00  0.00    +0.036 A 
ATOM     19  CZ  TYR A   1      28.441  77.677   4.122  0.00  0.00    +0.134 A 
ATOM     20  CE1 TYR A   1      27.405  77.450   3.255  0.00  0.00    +0.036 A 
ATOM     21  CD1 TYR A   1      26.441  78.460   3.032  0.00  0.00    -0.001 A 
BRANCH  19  22
ATOM     22  OH  TYR A   1      29.331  76.654   4.317  0.00  0.00    -0.506 OA
ATOM     23  HH  TYR A   1      29.073  75.882   3.754  0.00  0.00    +0.292 HD
ENDBRANCH  19  22
ENDBRANCH  15  16
ENDBRANCH   1  15
TORSDOF 9
REMARK  Name = ../refined-set-2016/2wm0/2wm0_pocket.pdb
REMARK  252 active torsions:
REMARK  status: ('A' for Active; 'I' for Inactive)
REMARK    1  A    between atoms: _1  and  _3
REMARK    2  A    between atoms: _3  and  _4
REMARK    3  A    between atoms: _3  and  _6
REMARK    4  A    between atoms: _6  and  _7
REMARK    5  A    between atoms: _12  and  _13
REMARK    6  A    between atoms: _15  and  _17
REMARK    7  A    between atoms: _17  and  _18
REMARK    8  A    between atoms: _17  and  _20
REMARK    9  A    between atoms: _23  and  _25
REMARK   10  A    between atoms: _25  and  _26
REMARK   11  A    between atoms: _25  and  _28
REMARK   12  A    between atoms: _28  and  _29
REMARK   13  A    between atoms: _29  and  _30
REMARK   14  A    between atoms: _33  and  _35
REMARK   15  A    between atoms: _35  and  _36
REMARK   16  A    between atoms: _35  and  _38
REMARK   17  A    between atoms: _38  and  _39
REMARK   18  A    between atoms: _49  and  _51
REMARK   19  A    between atoms: _51  and  _52
REMARK   20  A    between atoms: _54  and  _56
REMARK   21  A    between atoms: _56  and  _57
REMARK   22  A    between atoms: _56  and  _59
REMARK   23  A    between atoms: _59  and  _60
REMARK   24  A    between atoms: _65  and  _66
REMARK   25  A    between atoms: _68  and  _70
REMARK   26  A    between atoms: _70  and  _71
REMARK   27  A    between atoms: _73  and  _75
REMARK   28  A    between atoms: _75  and  _76
REMARK   29  A    between atoms: _75  and  _78
REMARK   30  A    between atoms: _78  and  _79
REMARK   31  A    between atoms: _79  and  _80
REMARK   32  A    between atoms: _80  and  _81
REMARK   33  A    between atoms: _90  and  _92
REMARK   34  A    between atoms: _92  and  _93
REMARK   35  A    between atoms: _92  and  _95
REMARK   36  A    between atoms: _95  and  _96
REMARK   37  A    between atoms: _99  and  _101
REMARK   38  A    between atoms: _101  and  _102
REMARK   39  A    between atoms: _104  and  _106
REMARK   40  A    between atoms: _106  and  _107
REMARK   41  A    between atoms: _106  and  _109
REMARK   42  A    between atoms: _109  and  _110
REMARK   43  A    between atoms: _116  and  _118
REMARK   44  A    between atoms: _118  and  _119
REMARK   45  A    between atoms: _118  and  _121
REMARK   46  A    between atoms: _121  and  _122
REMARK   47  A    between atoms: _126  and  _127
REMARK   48  A    between atoms: _132  and  _134
REMARK   49  A    between atoms: _134  and  _135
REMARK   50  A    between atoms: _134  and  _137
REMARK   51  A    between atoms: _137  and  _138
REMARK   52  A    between atoms: _140  and  _142
REMARK   53  A    between atoms: _142  and  _143
REMARK   54  A    between atoms: _142  and  _145
REMARK   55  A    between atoms: _145  and  _146
REMARK   56  A    between atoms: _149  and  _151
REMARK   57  A    between atoms: _151  and  _152
REMARK   58  A    between atoms: _151  and  _154
REMARK   59  A    between atoms: _154  and  _155
REMARK   60  A    between atoms: _155  and  _156
REMARK   61  A    between atoms: _159  and  _161
REMARK   62  A    between atoms: _161  and  _162
REMARK   63  A    between atoms: _161  and  _164
REMARK   64  A    between atoms: _164  and  _165
REMARK   65  A    between atoms: _168  and  _170
REMARK   66  A    between atoms: _170  and  _171
REMARK   67  A    between atoms: _170  and  _173
REMARK   68  A    between atoms: _173  and  _174
REMARK   69  A    between atoms: _174  and  _175
REMARK   70  A    between atoms: _178  and  _180
REMARK   71  A    between atoms: _180  and  _181
REMARK   72  A    between atoms: _183  and  _185
REMARK   73  A    between atoms: _185  and  _186
REMARK   74  A    between atoms: _185  and  _188
REMARK   75  A    between atoms: _188  and  _189
REMARK   76  A    between atoms: _191  and  _193
REMARK   77  A    between atoms: _193  and  _194
REMARK   78  A    between atoms: _193  and  _196
REMARK   79  A    between atoms: _196  and  _197
REMARK   80  A    between atoms: _203  and  _205
REMARK   81  A    between atoms: _205  and  _206
REMARK   82  A    between atoms: _205  and  _208
REMARK   83  A    between atoms: _208  and  _209
REMARK   84  A    between atoms: _214  and  _216
REMARK   85  A    between atoms: _216  and  _217
REMARK   86  A    between atoms: _216  and  _219
REMARK   87  A    between atoms: _219  and  _220
REMARK   88  A    between atoms: _223  and  _225
REMARK   89  A    between atoms: _225  and  _226
REMARK   90  A    between atoms: _225  and  _228
REMARK   91  A    between atoms: _228  and  _229
REMARK   92  A    between atoms: _231  and  _233
REMARK   93  A    between atoms: _233  and  _234
REMARK   94  A    between atoms: _233  and  _236
REMARK   95  A    between atoms: _236  and  _237
REMARK   96  A    between atoms: _240  and  _242
REMARK   97  A    between atoms: _242  and  _243
REMARK   98  A    between atoms: _245  and  _247
REMARK   99  A    between atoms: _247  and  _248
REMARK  100  A    between atoms: _250  and  _252
REMARK  101  A    between atoms: _252  and  _253
REMARK  102  A    between atoms: _252  and  _255
REMARK  103  A    between atoms: _255  and  _256
REMARK  104  A    between atoms: _266  and  _268
REMARK  105  A    between atoms: _268  and  _269
REMARK  106  A    between atoms: _268  and  _271
REMARK  107  A    between atoms: _271  and  _272
REMARK  108  A    between atoms: _275  and  _277
REMARK  109  A    between atoms: _277  and  _278
REMARK  110  A    between atoms: _277  and  _280
REMARK  111  A    between atoms: _280  and  _281
REMARK  112  A    between atoms: _284  and  _286
REMARK  113  A    between atoms: _286  and  _287
REMARK  114  A    between atoms: _286  and  _289
REMARK  115  A    between atoms: _289  and  _290
REMARK  116  A    between atoms: _292  and  _294
REMARK  117  A    between atoms: _294  and  _295
REMARK  118  A    between atoms: _294  and  _297
REMARK  119  A    between atoms: _297  and  _298
REMARK  120  A    between atoms: _301  and  _303
REMARK  121  A    between atoms: _303  and  _304
REMARK  122  A    between atoms: _303  and  _306
REMARK  123  A    between atoms: _306  and  _307
REMARK  124  A    between atoms: _310  and  _312
REMARK  125  A    between atoms: _312  and  _313
REMARK  126  A    between atoms: _312  and  _315
REMARK  127  A    between atoms: _315  and  _316
REMARK  128  A    between atoms: _319  and  _321
REMARK  129  A    between atoms: _321  and  _322
REMARK  130  A    between atoms: _321  and  _324
REMARK  131  A    between atoms: _324  and  _325
REMARK  132  A    between atoms: _335  and  _337
REMARK  133  A    between atoms: _337  and  _338
REMARK  134  A    between atoms: _337  and  _340
REMARK  135  A    between atoms: _340  and  _341
REMARK  136  A    between atoms: _341  and  _342
REMARK  137  A    between atoms: _345  and  _347
REMARK  138  A    between atoms: _347  and  _348
REMARK  139  A    between atoms: _347  and  _350
REMARK  140  A    between atoms: _350  and  _351
REMARK  141  A    between atoms: _357  and  _359
REMARK  142  A    between atoms: _359  and  _360
REMARK  143  A    between atoms: _363  and  _365
REMARK  144  A    between atoms: _365  and  _366
REMARK  145  A    between atoms: _365  and  _368
REMARK  146  A    between atoms: _368  and  _369
REMARK  147  A    between atoms: _371  and  _373
REMARK  148  A    between atoms: _373  and  _374
REMARK  149  A    between atoms: _377  and  _379
REMARK  150  A    between atoms: _379  and  _380
REMARK  151  A    between atoms: _379  and  _382
REMARK  152  A    between atoms: _382  and  _383
REMARK  153  A    between atoms: _386  and  _388
REMARK  154  A    between atoms: _388  and  _389
REMARK  155  A    between atoms: _388  and  _391
REMARK  156  A    between atoms: _391  and  _392
REMARK  157  A    between atoms: _398  and  _400
REMARK  158  A    between atoms: _400  and  _401
REMARK  159  A    between atoms: _400  and  _403
REMARK  160  A    between atoms: _403  and  _404
REMARK  161  A    between atoms: _404  and  _405
REMARK  162  A    between atoms: _407  and  _409
REMARK  163  A    between atoms: _409  and  _410
REMARK  164  A    between atoms: _409  and  _412
REMARK  165  A    between atoms: _412  and  _413
REMARK  166  A    between atoms: _418  and  _419
REMARK  167  A    between atoms: _421  and  _423
REMARK  168  A    between atoms: _423  and  _424
REMARK  169  A    between atoms: _423  and  _426
REMARK  170  A    between atoms: _426  and  _427
REMARK  171  A    between atoms: _430  and  _432
REMARK  172  A    between atoms: _432  and  _433
REMARK  173  A    between atoms: _432  and  _435
REMARK  174  A    between atoms: _435  and  _436
REMARK  175  A    between atoms: _442  and  _444
REMARK  176  A    between atoms: _444  and  _445
REMARK  177  A    between atoms: _444  and  _447
REMARK  178  A    between atoms: _447  and  _448
REMARK  179  A    between atoms: _448  and  _449
REMARK  180  A    between atoms: _454  and  _456
REMARK  181  A    between atoms: _456  and  _457
REMARK  182  A    between atoms: _456  and  _459
REMARK  183  A    between atoms: _459  and  _460
REMARK  184  A    between atoms: _463  and  _465
REMARK  185  A    between atoms: _465  and  _466
REMARK  186  A    between atoms: _469  and  _471
REMARK  187  A    between atoms: _471  and  _472
REMARK  188  A    between atoms: _471  and  _474
REMARK  189  A    between atoms: _474  and  _475
REMARK  190  A    between atoms: _475  and  _476
REMARK  191  A    between atoms: _478  and  _480
REMARK  192  A    between atoms: _480  and  _481
REMARK  193  A    between atoms: _480  and  _483
REMARK  194  A    between atoms: _483  and  _484
REMARK  195  A    between atoms: _489  and  _490
REMARK  196  A    between atoms: _492  and  _494
REMARK  197  A    between atoms: _494  and  _495
REMARK  198  A    between atoms: _497  and  _499
REMARK  199  A    between atoms: _499  and  _500
REMARK  200  A    between atoms: _499  and  _502
REMARK  201  A    between atoms: _502  and  _503
REMARK  202  A    between atoms: _503  and  _504
REMARK  203  A    between atoms: _504  and  _505
REMARK  204  A    between atoms: _514  and  _516
REMARK  205  A    between atoms: _516  and  _517
REMARK  206  A    between atoms: _516  and  _519
REMARK  207  A    between atoms: _519  and  _520
REMARK  208  A    between atoms: _530  and  _532
REMARK  209  A    between atoms: _532  and  _533
REMARK  210  A    between atoms: _532  and  _535
REMARK  211  A    between atoms: _535  and  _536
REMARK  212  A    between atoms: _536  and  _537
REMARK  213  A    between atoms: _540  and  _542
REMARK  214  A    between atoms: _542  and  _543
REMARK  215  A    between atoms: _542  and  _545
REMARK  216  A    between atoms: _545  and  _546
REMARK  217  A    between atoms: _551  and  _553
REMARK  218  A    between atoms: _553  and  _554
REMARK  219  A    between atoms: _556  and  _558
REMARK  220  A    between atoms: _558  and  _559
REMARK  221  A    between atoms: _558  and  _561
REMARK  222  A    between atoms: _561  and  _562
REMARK  223  A    between atoms: _565  and  _567
REMARK  224  A    between atoms: _567  and  _568
REMARK  225  A    between atoms: _567  and  _570
REMARK  226  A    between atoms: _573  and  _575
REMARK  227  A    between atoms: _575  and  _576
REMARK  228  A    between atoms: _575  and  _578
REMARK  229  A    between atoms: _578  and  _579
REMARK  230  A    between atoms: _582  and  _584
REMARK  231  A    between atoms: _584  and  _585
REMARK  232  A    between atoms: _584  and  _587
REMARK  233  A    between atoms: _587  and  _588
REMARK  234  A    between atoms: _594  and  _596
REMARK  235  A    between atoms: _596  and  _597
REMARK  236  A    between atoms: _596  and  _599
REMARK  237  A    between atoms: _599  and  _600
REMARK  238  A    between atoms: _602  and  _604
REMARK  239  A    between atoms: _604  and  _605
REMARK  240  A    between atoms: _604  and  _607
REMARK  241  A    between atoms: _607  and  _608
REMARK  242  A    between atoms: _618  and  _620
REMARK  243  A    between atoms: _620  and  _621
REMARK  244  A    between atoms: _620  and  _623
REMARK  245  A    between atoms: _623  and  _624
REMARK  246  A    between atoms: _624  and  _625
REMARK  247  A    between atoms: _628  and  _630
REMARK  248  A    between atoms: _630  and  _631
REMARK  249  A    between atoms: _630  and  _633
REMARK  250  A    between atoms: _633  and  _634
REMARK  251  A    between atoms: _637  and  _639
REMARK  252  A    between atoms: _639  and  _640
REMARK                            x       y       z     vdW  Elec       q    Type
REMARK                         _______ _______ _______ _____ _____    ______ ____
ROOT
ATOM      1  CB  PHE A   1      16.923  75.700  -4.889  0.00  0.00    +0.051 C 
ENDROOT
BRANCH   1   2
ATOM      2  CG  PHE A   1      17.366  76.450  -3.622  0.00  0.00    -0.020 A 
ATOM      3  CD2 PHE A   1      16.480  76.660  -2.563  0.00  0.00    -0.004 A 
ATOM      4  CE2 PHE A   1      16.878  77.323  -1.418  0.00  0.00    -0.000 A 
ATOM      5  CZ  PHE A   1      18.201  77.780  -1.302  0.00  0.00    -0.000 A 
ATOM      6  CE1 PHE A   1      19.111  77.558  -2.344  0.00  0.00    -0.000 A 
ATOM      7  CD1 PHE A   1      18.684  76.898  -3.495  0.00  0.00    -0.004 A 
ENDBRANCH   1   2
BRANCH   1   8
ATOM      8  CA  PHE A   1      16.093  76.560  -5.885  0.00  0.00    +0.137 C 
BRANCH   8   9
ATOM      9  N   PHE A   1      16.706  77.886  -6.099  0.00  0.00    -0.239 NA
ATOM     10  H   PHE A   1      17.430  78.211  -5.426  0.00  0.00    +0.142 HD
ENDBRANCH   8   9
BRANCH   8  11
ATOM     11  C   PHE A   1      14.628  76.691  -5.438  0.00  0.00    +0.224 C 
ATOM     12  O   PHE A   1      13.872  75.700  -5.481  0.00  0.00    -0.287 OA
ENDBRANCH   8  11
ENDBRANCH   1   8
TORSDOF 4
REMARK  Name = ../refined-set-2016/2wm0/2wm0_pocket.pdb
REMARK  252 active torsions:
REMARK  status: ('A' for Active; 'I' for Inactive)
REMARK    1  A    between atoms: _1  and  _3
REMARK    2  A    between atoms: _3  and  _4
REMARK    3  A    between atoms: _3  and  _6
REMARK    4  A    between atoms: _6  and  _7
REMARK    5  A    between atoms: _12  and  _13
REMARK    6  A    between atoms: _15  and  _17
REMARK    7  A    between atoms: _17  and  _18
REMARK    8  A    between atoms: _17  and  _20
REMARK    9  A    between atoms: _23  and  _25
REMARK   10  A    between atoms: _25  and  _26
REMARK   11  A    between atoms: _25  and  _28
REMARK   12  A    between atoms: _28  and  _29
REMARK   13  A    between atoms: _29  and  _30
REMARK   14  A    between atoms: _33  and  _35
REMARK   15  A    between atoms: _35  and  _36
REMARK   16  A    between atoms: _35  and  _38
REMARK   17  A    between atoms: _38  and  _39
REMARK   18  A    between atoms: _49  and  _51
REMARK   19  A    between atoms: _51  and  _52
REMARK   20  A    between atoms: _54  and  _56
REMARK   21  A    between atoms: _56  and  _57
REMARK   22  A    between atoms: _56  and  _59
REMARK   23  A    between atoms: _59  and  _60
REMARK   24  A    between atoms: _65  and  _66
REMARK   25  A    between atoms: _68  and  _70
REMARK   26  A    between atoms: _70  and  _71
REMARK   27  A    between atoms: _73  and  _75
REMARK   28  A    between atoms: _75  and  _76
REMARK   29  A    between atoms: _75  and  _78
REMARK   30  A    between atoms: _78  and  _79
REMARK   31  A    between atoms: _79  and  _80
REMARK   32  A    between atoms: _80  and  _81
REMARK   33  A    between atoms: _90  and  _92
REMARK   34  A    between atoms: _92  and  _93
REMARK   35  A    between atoms: _92  and  _95
REMARK   36  A    between atoms: _95  and  _96
REMARK   37  A    between atoms: _99  and  _101
REMARK   38  A    between atoms: _101  and  _102
REMARK   39  A    between atoms: _104  and  _106
REMARK   40  A    between atoms: _106  and  _107
REMARK   41  A    between atoms: _106  and  _109
REMARK   42  A    between atoms: _109  and  _110
REMARK   43  A    between atoms: _116  and  _118
REMARK   44  A    between atoms: _118  and  _119
REMARK   45  A    between atoms: _118  and  _121
REMARK   46  A    between atoms: _121  and  _122
REMARK   47  A    between atoms: _126  and  _127
REMARK   48  A    between atoms: _132  and  _134
REMARK   49  A    between atoms: _134  and  _135
REMARK   50  A    between atoms: _134  and  _137
REMARK   51  A    between atoms: _137  and  _138
REMARK   52  A    between atoms: _140  and  _142
REMARK   53  A    between atoms: _142  and  _143
REMARK   54  A    between atoms: _142  and  _145
REMARK   55  A    between atoms: _145  and  _146
REMARK   56  A    between atoms: _149  and  _151
REMARK   57  A    between atoms: _151  and  _152
REMARK   58  A    between atoms: _151  and  _154
REMARK   59  A    between atoms: _154  and  _155
REMARK   60  A    between atoms: _155  and  _156
REMARK   61  A    between atoms: _159  and  _161
REMARK   62  A    between atoms: _161  and  _162
REMARK   63  A    between atoms: _161  and  _164
REMARK   64  A    between atoms: _164  and  _165
REMARK   65  A    between atoms: _168  and  _170
REMARK   66  A    between atoms: _170  and  _171
REMARK   67  A    between atoms: _170  and  _173
REMARK   68  A    between atoms: _173  and  _174
REMARK   69  A    between atoms: _174  and  _175
REMARK   70  A    between atoms: _178  and  _180
REMARK   71  A    between atoms: _180  and  _181
REMARK   72  A    between atoms: _183  and  _185
REMARK   73  A    between atoms: _185  and  _186
REMARK   74  A    between atoms: _185  and  _188
REMARK   75  A    between atoms: _188  and  _189
REMARK   76  A    between atoms: _191  and  _193
REMARK   77  A    between atoms: _193  and  _194
REMARK   78  A    between atoms: _193  and  _196
REMARK   79  A    between atoms: _196  and  _197
REMARK   80  A    between atoms: _203  and  _205
REMARK   81  A    between atoms: _205  and  _206
REMARK   82  A    between atoms: _205  and  _208
REMARK   83  A    between atoms: _208  and  _209
REMARK   84  A    between atoms: _214  and  _216
REMARK   85  A    between atoms: _216  and  _217
REMARK   86  A    between atoms: _216  and  _219
REMARK   87  A    between atoms: _219  and  _220
REMARK   88  A    between atoms: _223  and  _225
REMARK   89  A    between atoms: _225  and  _226
REMARK   90  A    between atoms: _225  and  _228
REMARK   91  A    between atoms: _228  and  _229
REMARK   92  A    between atoms: _231  and  _233
REMARK   93  A    between atoms: _233  and  _234
REMARK   94  A    between atoms: _233  and  _236
REMARK   95  A    between atoms: _236  and  _237
REMARK   96  A    between atoms: _240  and  _242
REMARK   97  A    between atoms: _242  and  _243
REMARK   98  A    between atoms: _245  and  _247
REMARK   99  A    between atoms: _247  and  _248
REMARK  100  A    between atoms: _250  and  _252
REMARK  101  A    between atoms: _252  and  _253
REMARK  102  A    between atoms: _252  and  _255
REMARK  103  A    between atoms: _255  and  _256
REMARK  104  A    between atoms: _266  and  _268
REMARK  105  A    between atoms: _268  and  _269
REMARK  106  A    between atoms: _268  and  _271
REMARK  107  A    between atoms: _271  and  _272
REMARK  108  A    between atoms: _275  and  _277
REMARK  109  A    between atoms: _277  and  _278
REMARK  110  A    between atoms: _277  and  _280
REMARK  111  A    between atoms: _280  and  _281
REMARK  112  A    between atoms: _284  and  _286
REMARK  113  A    between atoms: _286  and  _287
REMARK  114  A    between atoms: _286  and  _289
REMARK  115  A    between atoms: _289  and  _290
REMARK  116  A    between atoms: _292  and  _294
REMARK  117  A    between atoms: _294  and  _295
REMARK  118  A    between atoms: _294  and  _297
REMARK  119  A    between atoms: _297  and  _298
REMARK  120  A    between atoms: _301  and  _303
REMARK  121  A    between atoms: _303  and  _304
REMARK  122  A    between atoms: _303  and  _306
REMARK  123  A    between atoms: _306  and  _307
REMARK  124  A    between atoms: _310  and  _312
REMARK  125  A    between atoms: _312  and  _313
REMARK  126  A    between atoms: _312  and  _315
REMARK  127  A    between atoms: _315  and  _316
REMARK  128  A    between atoms: _319  and  _321
REMARK  129  A    between atoms: _321  and  _322
REMARK  130  A    between atoms: _321  and  _324
REMARK  131  A    between atoms: _324  and  _325
REMARK  132  A    between atoms: _335  and  _337
REMARK  133  A    between atoms: _337  and  _338
REMARK  134  A    between atoms: _337  and  _340
REMARK  135  A    between atoms: _340  and  _341
REMARK  136  A    between atoms: _341  and  _342
REMARK  137  A    between atoms: _345  and  _347
REMARK  138  A    between atoms: _347  and  _348
REMARK  139  A    between atoms: _347  and  _350
REMARK  140  A    between atoms: _350  and  _351
REMARK  141  A    between atoms: _357  and  _359
REMARK  142  A    between atoms: _359  and  _360
REMARK  143  A    between atoms: _363  and  _365
REMARK  144  A    between atoms: _365  and  _366
REMARK  145  A    between atoms: _365  and  _368
REMARK  146  A    between atoms: _368  and  _369
REMARK  147  A    between atoms: _371  and  _373
REMARK  148  A    between atoms: _373  and  _374
REMARK  149  A    between atoms: _377  and  _379
REMARK  150  A    between atoms: _379  and  _380
REMARK  151  A    between atoms: _379  and  _382
REMARK  152  A    between atoms: _382  and  _383
REMARK  153  A    between atoms: _386  and  _388
REMARK  154  A    between atoms: _388  and  _389
REMARK  155  A    between atoms: _388  and  _391
REMARK  156  A    between atoms: _391  and  _392
REMARK  157  A    between atoms: _398  and  _400
REMARK  158  A    between atoms: _400  and  _401
REMARK  159  A    between atoms: _400  and  _403
REMARK  160  A    between atoms: _403  and  _404
REMARK  161  A    between atoms: _404  and  _405
REMARK  162  A    between atoms: _407  and  _409
REMARK  163  A    between atoms: _409  and  _410
REMARK  164  A    between atoms: _409  and  _412
REMARK  165  A    between atoms: _412  and  _413
REMARK  166  A    between atoms: _418  and  _419
REMARK  167  A    between atoms: _421  and  _423
REMARK  168  A    between atoms: _423  and  _424
REMARK  169  A    between atoms: _423  and  _426
REMARK  170  A    between atoms: _426  and  _427
REMARK  171  A    between atoms: _430  and  _432
REMARK  172  A    between atoms: _432  and  _433
REMARK  173  A    between atoms: _432  and  _435
REMARK  174  A    between atoms: _435  and  _436
REMARK  175  A    between atoms: _442  and  _444
REMARK  176  A    between atoms: _444  and  _445
REMARK  177  A    between atoms: _444  and  _447
REMARK  178  A    between atoms: _447  and  _448
REMARK  179  A    between atoms: _448  and  _449
REMARK  180  A    between atoms: _454  and  _456
REMARK  181  A    between atoms: _456  and  _457
REMARK  182  A    between atoms: _456  and  _459
REMARK  183  A    between atoms: _459  and  _460
REMARK  184  A    between atoms: _463  and  _465
REMARK  185  A    between atoms: _465  and  _466
REMARK  186  A    between atoms: _469  and  _471
REMARK  187  A    between atoms: _471  and  _472
REMARK  188  A    between atoms: _471  and  _474
REMARK  189  A    between atoms: _474  and  _475
REMARK  190  A    between atoms: _475  and  _476
REMARK  191  A    between atoms: _478  and  _480
REMARK  192  A    between atoms: _480  and  _481
REMARK  193  A    between atoms: _480  and  _483
REMARK  194  A    between atoms: _483  and  _484
REMARK  195  A    between atoms: _489  and  _490
REMARK  196  A    between atoms: _492  and  _494
REMARK  197  A    between atoms: _494  and  _495
REMARK  198  A    between atoms: _497  and  _499
REMARK  199  A    between atoms: _499  and  _500
REMARK  200  A    between atoms: _499  and  _502
REMARK  201  A    between atoms: _502  and  _503
REMARK  202  A    between atoms: _503  and  _504
REMARK  203  A    between atoms: _504  and  _505
REMARK  204  A    between atoms: _514  and  _516
REMARK  205  A    between atoms: _516  and  _517
REMARK  206  A    between atoms: _516  and  _519
REMARK  207  A    between atoms: _519  and  _520
REMARK  208  A    between atoms: _530  and  _532
REMARK  209  A    between atoms: _532  and  _533
REMARK  210  A    between atoms: _532  and  _535
REMARK  211  A    between atoms: _535  and  _536
REMARK  212  A    between atoms: _536  and  _537
REMARK  213  A    between atoms: _540  and  _542
REMARK  214  A    between atoms: _542  and  _543
REMARK  215  A    between atoms: _542  and  _545
REMARK  216  A    between atoms: _545  and  _546
REMARK  217  A    between atoms: _551  and  _553
REMARK  218  A    between atoms: _553  and  _554
REMARK  219  A    between atoms: _556  and  _558
REMARK  220  A    between atoms: _558  and  _559
REMARK  221  A    between atoms: _558  and  _561
REMARK  222  A    between atoms: _561  and  _562
REMARK  223  A    between atoms: _565  and  _567
REMARK  224  A    between atoms: _567  and  _568
REMARK  225  A    between atoms: _567  and  _570
REMARK  226  A    between atoms: _573  and  _575
REMARK  227  A    between atoms: _575  and  _576
REMARK  228  A    between atoms: _575  and  _578
REMARK  229  A    between atoms: _578  and  _579
REMARK  230  A    between atoms: _582  and  _584
REMARK  231  A    between atoms: _584  and  _585
REMARK  232  A    between atoms: _584  and  _587
REMARK  233  A    between atoms: _587  and  _588
REMARK  234  A    between atoms: _594  and  _596
REMARK  235  A    between atoms: _596  and  _597
REMARK  236  A    between atoms: _596  and  _599
REMARK  237  A    between atoms: _599  and  _600
REMARK  238  A    between atoms: _602  and  _604
REMARK  239  A    between atoms: _604  and  _605
REMARK  240  A    between atoms: _604  and  _607
REMARK  241  A    between atoms: _607  and  _608
REMARK  242  A    between atoms: _618  and  _620
REMARK  243  A    between atoms: _620  and  _621
REMARK  244  A    between atoms: _620  and  _623
REMARK  245  A    between atoms: _623  and  _624
REMARK  246  A    between atoms: _624  and  _625
REMARK  247  A    between atoms: _628  and  _630
REMARK  248  A    between atoms: _630  and  _631
REMARK  249  A    between atoms: _630  and  _633
REMARK  250  A    between atoms: _633  and  _634
REMARK  251  A    between atoms: _637  and  _639
REMARK  252  A    between atoms: _639  and  _640
REMARK                            x       y       z     vdW  Elec       q    Type
REMARK                         _______ _______ _______ _____ _____    ______ ____
ROOT
ATOM      1  CB  GLN A   1      21.114  83.474   0.414  0.00  0.00    +0.035 C 
ENDROOT
BRANCH   1   2
ATOM      2  CA  GLN A   1      20.457  83.828   1.756  0.00  0.00    +0.134 C 
BRANCH   2   3
ATOM      3  N   GLN A   1      19.849  85.161   1.740  0.00  0.00    -0.239 NA
ATOM      4  H   GLN A   1      20.220  85.885   1.092  0.00  0.00    +0.142 HD
ENDBRANCH   2   3
BRANCH   2   5
ATOM      5  C   GLN A   1      21.394  83.555   2.925  0.00  0.00    +0.224 C 
ATOM      6  O   GLN A   1      21.665  82.406   3.203  0.00  0.00    -0.287 OA
ENDBRANCH   2   5
ENDBRANCH   1   2
BRANCH   1   7
ATOM      7  CG  GLN A   1      22.453  84.184   0.105  0.00  0.00    +0.087 C 
BRANCH   7   8
ATOM      8  CD  GLN A   1      23.656  83.259  -0.025  0.00  0.00    +0.219 C 
ATOM      9  OE1 GLN A   1      23.609  82.089   0.371  0.00  0.00    -0.275 OA
ATOM     10  NE2 GLN A   1      24.752  83.787  -0.597  0.00  0.00    -0.329 N 
ATOM     11 HE21 GLN A   1      25.605  83.205  -0.721  0.00  0.00    +0.145 HD
ATOM     12 HE22 GLN A   1      24.747  84.777  -0.916  0.00  0.00    +0.145 HD
ENDBRANCH   7   8
ENDBRANCH   1   7
TORSDOF 5
REMARK  Name = ../refined-set-2016/2wm0/2wm0_pocket.pdb
REMARK  252 active torsions:
REMARK  status: ('A' for Active; 'I' for Inactive)
REMARK    1  A    between atoms: _1  and  _3
REMARK    2  A    between atoms: _3  and  _4
REMARK    3  A    between atoms: _3  and  _6
REMARK    4  A    between atoms: _6  and  _7
REMARK    5  A    between atoms: _12  and  _13
REMARK    6  A    between atoms: _15  and  _17
REMARK    7  A    between atoms: _17  and  _18
REMARK    8  A    between atoms: _17  and  _20
REMARK    9  A    between atoms: _23  and  _25
REMARK   10  A    between atoms: _25  and  _26
REMARK   11  A    between atoms: _25  and  _28
REMARK   12  A    between atoms: _28  and  _29
REMARK   13  A    between atoms: _29  and  _30
REMARK   14  A    between atoms: _33  and  _35
REMARK   15  A    between atoms: _35  and  _36
REMARK   16  A    between atoms: _35  and  _38
REMARK   17  A    between atoms: _38  and  _39
REMARK   18  A    between atoms: _49  and  _51
REMARK   19  A    between atoms: _51  and  _52
REMARK   20  A    between atoms: _54  and  _56
REMARK   21  A    between atoms: _56  and  _57
REMARK   22  A    between atoms: _56  and  _59
REMARK   23  A    between atoms: _59  and  _60
REMARK   24  A    between atoms: _65  and  _66
REMARK   25  A    between atoms: _68  and  _70
REMARK   26  A    between atoms: _70  and  _71
REMARK   27  A    between atoms: _73  and  _75
REMARK   28  A    between atoms: _75  and  _76
REMARK   29  A    between atoms: _75  and  _78
REMARK   30  A    between atoms: _78  and  _79
REMARK   31  A    between atoms: _79  and  _80
REMARK   32  A    between atoms: _80  and  _81
REMARK   33  A    between atoms: _90  and  _92
REMARK   34  A    between atoms: _92  and  _93
REMARK   35  A    between atoms: _92  and  _95
REMARK   36  A    between atoms: _95  and  _96
REMARK   37  A    between atoms: _99  and  _101
REMARK   38  A    between atoms: _101  and  _102
REMARK   39  A    between atoms: _104  and  _106
REMARK   40  A    between atoms: _106  and  _107
REMARK   41  A    between atoms: _106  and  _109
REMARK   42  A    between atoms: _109  and  _110
REMARK   43  A    between atoms: _116  and  _118
REMARK   44  A    between atoms: _118  and  _119
REMARK   45  A    between atoms: _118  and  _121
REMARK   46  A    between atoms: _121  and  _122
REMARK   47  A    between atoms: _126  and  _127
REMARK   48  A    between atoms: _132  and  _134
REMARK   49  A    between atoms: _134  and  _135
REMARK   50  A    between atoms: _134  and  _137
REMARK   51  A    between atoms: _137  and  _138
REMARK   52  A    between atoms: _140  and  _142
REMARK   53  A    between atoms: _142  and  _143
REMARK   54  A    between atoms: _142  and  _145
REMARK   55  A    between atoms: _145  and  _146
REMARK   56  A    between atoms: _149  and  _151
REMARK   57  A    between atoms: _151  and  _152
REMARK   58  A    between atoms: _151  and  _154
REMARK   59  A    between atoms: _154  and  _155
REMARK   60  A    between atoms: _155  and  _156
REMARK   61  A    between atoms: _159  and  _161
REMARK   62  A    between atoms: _161  and  _162
REMARK   63  A    between atoms: _161  and  _164
REMARK   64  A    between atoms: _164  and  _165
REMARK   65  A    between atoms: _168  and  _170
REMARK   66  A    between atoms: _170  and  _171
REMARK   67  A    between atoms: _170  and  _173
REMARK   68  A    between atoms: _173  and  _174
REMARK   69  A    between atoms: _174  and  _175
REMARK   70  A    between atoms: _178  and  _180
REMARK   71  A    between atoms: _180  and  _181
REMARK   72  A    between atoms: _183  and  _185
REMARK   73  A    between atoms: _185  and  _186
REMARK   74  A    between atoms: _185  and  _188
REMARK   75  A    between atoms: _188  and  _189
REMARK   76  A    between atoms: _191  and  _193
REMARK   77  A    between atoms: _193  and  _194
REMARK   78  A    between atoms: _193  and  _196
REMARK   79  A    between atoms: _196  and  _197
REMARK   80  A    between atoms: _203  and  _205
REMARK   81  A    between atoms: _205  and  _206
REMARK   82  A    between atoms: _205  and  _208
REMARK   83  A    between atoms: _208  and  _209
REMARK   84  A    between atoms: _214  and  _216
REMARK   85  A    between atoms: _216  and  _217
REMARK   86  A    between atoms: _216  and  _219
REMARK   87  A    between atoms: _219  and  _220
REMARK   88  A    between atoms: _223  and  _225
REMARK   89  A    between atoms: _225  and  _226
REMARK   90  A    between atoms: _225  and  _228
REMARK   91  A    between atoms: _228  and  _229
REMARK   92  A    between atoms: _231  and  _233
REMARK   93  A    between atoms: _233  and  _234
REMARK   94  A    between atoms: _233  and  _236
REMARK   95  A    between atoms: _236  and  _237
REMARK   96  A    between atoms: _240  and  _242
REMARK   97  A    between atoms: _242  and  _243
REMARK   98  A    between atoms: _245  and  _247
REMARK   99  A    between atoms: _247  and  _248
REMARK  100  A    between atoms: _250  and  _252
REMARK  101  A    between atoms: _252  and  _253
REMARK  102  A    between atoms: _252  and  _255
REMARK  103  A    between atoms: _255  and  _256
REMARK  104  A    between atoms: _266  and  _268
REMARK  105  A    between atoms: _268  and  _269
REMARK  106  A    between atoms: _268  and  _271
REMARK  107  A    between atoms: _271  and  _272
REMARK  108  A    between atoms: _275  and  _277
REMARK  109  A    between atoms: _277  and  _278
REMARK  110  A    between atoms: _277  and  _280
REMARK  111  A    between atoms: _280  and  _281
REMARK  112  A    between atoms: _284  and  _286
REMARK  113  A    between atoms: _286  and  _287
REMARK  114  A    between atoms: _286  and  _289
REMARK  115  A    between atoms: _289  and  _290
REMARK  116  A    between atoms: _292  and  _294
REMARK  117  A    between atoms: _294  and  _295
REMARK  118  A    between atoms: _294  and  _297
REMARK  119  A    between atoms: _297  and  _298
REMARK  120  A    between atoms: _301  and  _303
REMARK  121  A    between atoms: _303  and  _304
REMARK  122  A    between atoms: _303  and  _306
REMARK  123  A    between atoms: _306  and  _307
REMARK  124  A    between atoms: _310  and  _312
REMARK  125  A    between atoms: _312  and  _313
REMARK  126  A    between atoms: _312  and  _315
REMARK  127  A    between atoms: _315  and  _316
REMARK  128  A    between atoms: _319  and  _321
REMARK  129  A    between atoms: _321  and  _322
REMARK  130  A    between atoms: _321  and  _324
REMARK  131  A    between atoms: _324  and  _325
REMARK  132  A    between atoms: _335  and  _337
REMARK  133  A    between atoms: _337  and  _338
REMARK  134  A    between atoms: _337  and  _340
REMARK  135  A    between atoms: _340  and  _341
REMARK  136  A    between atoms: _341  and  _342
REMARK  137  A    between atoms: _345  and  _347
REMARK  138  A    between atoms: _347  and  _348
REMARK  139  A    between atoms: _347  and  _350
REMARK  140  A    between atoms: _350  and  _351
REMARK  141  A    between atoms: _357  and  _359
REMARK  142  A    between atoms: _359  and  _360
REMARK  143  A    between atoms: _363  and  _365
REMARK  144  A    between atoms: _365  and  _366
REMARK  145  A    between atoms: _365  and  _368
REMARK  146  A    between atoms: _368  and  _369
REMARK  147  A    between atoms: _371  and  _373
REMARK  148  A    between atoms: _373  and  _374
REMARK  149  A    between atoms: _377  and  _379
REMARK  150  A    between atoms: _379  and  _380
REMARK  151  A    between atoms: _379  and  _382
REMARK  152  A    between atoms: _382  and  _383
REMARK  153  A    between atoms: _386  and  _388
REMARK  154  A    between atoms: _388  and  _389
REMARK  155  A    between atoms: _388  and  _391
REMARK  156  A    between atoms: _391  and  _392
REMARK  157  A    between atoms: _398  and  _400
REMARK  158  A    between atoms: _400  and  _401
REMARK  159  A    between atoms: _400  and  _403
REMARK  160  A    between atoms: _403  and  _404
REMARK  161  A    between atoms: _404  and  _405
REMARK  162  A    between atoms: _407  and  _409
REMARK  163  A    between atoms: _409  and  _410
REMARK  164  A    between atoms: _409  and  _412
REMARK  165  A    between atoms: _412  and  _413
REMARK  166  A    between atoms: _418  and  _419
REMARK  167  A    between atoms: _421  and  _423
REMARK  168  A    between atoms: _423  and  _424
REMARK  169  A    between atoms: _423  and  _426
REMARK  170  A    between atoms: _426  and  _427
REMARK  171  A    between atoms: _430  and  _432
REMARK  172  A    between atoms: _432  and  _433
REMARK  173  A    between atoms: _432  and  _435
REMARK  174  A    between atoms: _435  and  _436
REMARK  175  A    between atoms: _442  and  _444
REMARK  176  A    between atoms: _444  and  _445
REMARK  177  A    between atoms: _444  and  _447
REMARK  178  A    between atoms: _447  and  _448
REMARK  179  A    between atoms: _448  and  _449
REMARK  180  A    between atoms: _454  and  _456
REMARK  181  A    between atoms: _456  and  _457
REMARK  182  A    between atoms: _456  and  _459
REMARK  183  A    between atoms: _459  and  _460
REMARK  184  A    between atoms: _463  and  _465
REMARK  185  A    between atoms: _465  and  _466
REMARK  186  A    between atoms: _469  and  _471
REMARK  187  A    between atoms: _471  and  _472
REMARK  188  A    between atoms: _471  and  _474
REMARK  189  A    between atoms: _474  and  _475
REMARK  190  A    between atoms: _475  and  _476
REMARK  191  A    between atoms: _478  and  _480
REMARK  192  A    between atoms: _480  and  _481
REMARK  193  A    between atoms: _480  and  _483
REMARK  194  A    between atoms: _483  and  _484
REMARK  195  A    between atoms: _489  and  _490
REMARK  196  A    between atoms: _492  and  _494
REMARK  197  A    between atoms: _494  and  _495
REMARK  198  A    between atoms: _497  and  _499
REMARK  199  A    between atoms: _499  and  _500
REMARK  200  A    between atoms: _499  and  _502
REMARK  201  A    between atoms: _502  and  _503
REMARK  202  A    between atoms: _503  and  _504
REMARK  203  A    between atoms: _504  and  _505
REMARK  204  A    between atoms: _514  and  _516
REMARK  205  A    between atoms: _516  and  _517
REMARK  206  A    between atoms: _516  and  _519
REMARK  207  A    between atoms: _519  and  _520
REMARK  208  A    between atoms: _530  and  _532
REMARK  209  A    between atoms: _532  and  _533
REMARK  210  A    between atoms: _532  and  _535
REMARK  211  A    between atoms: _535  and  _536
REMARK  212  A    between atoms: _536  and  _537
REMARK  213  A    between atoms: _540  and  _542
REMARK  214  A    between atoms: _542  and  _543
REMARK  215  A    between atoms: _542  and  _545
REMARK  216  A    between atoms: _545  and  _546
REMARK  217  A    between atoms: _551  and  _553
REMARK  218  A    between atoms: _553  and  _554
REMARK  219  A    between atoms: _556  and  _558
REMARK  220  A    between atoms: _558  and  _559
REMARK  221  A    between atoms: _558  and  _561
REMARK  222  A    between atoms: _561  and  _562
REMARK  223  A    between atoms: _565  and  _567
REMARK  224  A    between atoms: _567  and  _568
REMARK  225  A    between atoms: _567  and  _570
REMARK  226  A    between atoms: _573  and  _575
REMARK  227  A    between atoms: _575  and  _576
REMARK  228  A    between atoms: _575  and  _578
REMARK  229  A    between atoms: _578  and  _579
REMARK  230  A    between atoms: _582  and  _584
REMARK  231  A    between atoms: _584  and  _585
REMARK  232  A    between atoms: _584  and  _587
REMARK  233  A    between atoms: _587  and  _588
REMARK  234  A    between atoms: _594  and  _596
REMARK  235  A    between atoms: _596  and  _597
REMARK  236  A    between atoms: _596  and  _599
REMARK  237  A    between atoms: _599  and  _600
REMARK  238  A    between atoms: _602  and  _604
REMARK  239  A    between atoms: _604  and  _605
REMARK  240  A    between atoms: _604  and  _607
REMARK  241  A    between atoms: _607  and  _608
REMARK  242  A    between atoms: _618  and  _620
REMARK  243  A    between atoms: _620  and  _621
REMARK  244  A    between atoms: _620  and  _623
REMARK  245  A    between atoms: _623  and  _624
REMARK  246  A    between atoms: _624  and  _625
REMARK  247  A    between atoms: _628  and  _630
REMARK  248  A    between atoms: _630  and  _631
REMARK  249  A    between atoms: _630  and  _633
REMARK  250  A    between atoms: _633  and  _634
REMARK  251  A    between atoms: _637  and  _639
REMARK  252  A    between atoms: _639  and  _640
REMARK                            x       y       z     vdW  Elec       q    Type
REMARK                         _______ _______ _______ _____ _____    ______ ____
ROOT
ATOM      1  CA  TYR A   4      29.034  84.461  -3.253  0.00  0.00    +0.153 C 
ENDROOT
BRANCH   1   2
ATOM      2  C   TYR A   4      27.612  84.960  -2.926  0.00  0.00    +0.241 C 
ATOM      3  O   TYR A   4      27.214  84.997  -1.775  0.00  0.00    -0.273 OA
ATOM      4  N   GLY A   5      26.852  85.324  -3.948  0.00  0.00    -0.295 N 
ATOM      5  H   GLY A   5      27.270  85.367  -4.899  0.00  0.00    +0.150 HD
BRANCH   4   6
ATOM      6  CA  GLY A   5      25.457  85.663  -3.777  0.00  0.00    +0.176 C 
BRANCH   6   7
ATOM      7  C   GLY A   5      24.616  84.600  -4.466  0.00  0.00    +0.243 C 
ATOM      8  N   ARG A   6      23.367  84.452  -4.036  0.00  0.00    -0.298 N 
ATOM      9  H   ARG A   6      23.084  84.867  -3.126  0.00  0.00    +0.150 HD
ATOM     10  O   GLY A   5      25.120  83.895  -5.351  0.00  0.00    -0.273 OA
BRANCH   8  11
ATOM     11  CA  ARG A   6      22.386  83.711  -4.830  0.00  0.00    +0.137 C 
BRANCH  11  12
ATOM     12  C   ARG A   6      21.385  84.699  -5.387  0.00  0.00    +0.227 C 
ATOM     13  O   ARG A   6      21.138  85.720  -4.789  0.00  0.00    -0.286 OA
ENDBRANCH  11  12
BRANCH  11  14
ATOM     14  CB  ARG A   6      21.660  82.652  -4.005  0.00  0.00    +0.031 C 
BRANCH  14  15
ATOM     15  CG  ARG A   6      22.619  81.565  -3.480  0.00  0.00    +0.045 C 
BRANCH  15  16
ATOM     16  CD  ARG A   6      21.843  80.410  -2.820  0.00  0.00    +0.174 C 
BRANCH  16  17
ATOM     17  NE  ARG A   6      22.730  79.265  -2.590  0.00  0.00    -0.265 N 
ATOM     18  HE  ARG A   6      23.225  79.206  -1.677  0.00  0.00    +0.259 HD
ATOM     19  CZ  ARG A   6      22.939  78.301  -3.475  0.00  0.00    +0.342 C 
ATOM     20  NH2 ARG A   6      23.790  77.311  -3.186  0.00  0.00    -0.292 N 
ATOM     21 HH21 ARG A   6      24.284  77.300  -2.271  0.00  0.00    +0.255 HD
ATOM     22 HH22 ARG A   6      23.958  76.552  -3.876  0.00  0.00    +0.255 HD
ATOM     23  NH1 ARG A   6      22.281  78.322  -4.646  0.00  0.00    -0.292 N 
ATOM     24 HH11 ARG A   6      21.613  79.091  -4.853  0.00  0.00    +0.255 HD
ATOM     25 HH12 ARG A   6      22.440  77.569  -5.345  0.00  0.00    +0.255 HD
ENDBRANCH  16  17
ENDBRANCH  15  16
ENDBRANCH  14  15
ENDBRANCH  11  14
ENDBRANCH   8  11
ENDBRANCH   6   7
ENDBRANCH   4   6
ENDBRANCH   1   2
BRANCH   1  27
ATOM     26  C   MET A   3      31.104  84.739  -1.997  0.00  0.00    +0.241 C 
ATOM     27  N   TYR A   4      29.784  84.570  -2.022  0.00  0.00    -0.297 N 
ATOM     28  H   TYR A   4      29.271  84.514  -1.119  0.00  0.00    +0.150 HD
ATOM     29  O   MET A   3      31.775  84.880  -3.034  0.00  0.00    -0.273 OA
BRANCH  26  30
ATOM     30  CA  MET A   3      31.760  84.727  -0.601  0.00  0.00    +0.149 C 
BRANCH  30  33
ATOM     31  C   ALA A   2      30.073  84.470   1.168  0.00  0.00    +0.241 C 
ATOM     32  O   ALA A   2      29.950  85.699   1.298  0.00  0.00    -0.273 OA
ATOM     33  N   MET A   3      30.982  83.915   0.371  0.00  0.00    -0.297 N 
ATOM     34  H   MET A   3      31.152  82.891   0.429  0.00  0.00    +0.150 HD
BRANCH  31  35
ATOM     35  CA  ALA A   2      29.178  83.517   1.941  0.00  0.00    +0.149 C 
ATOM     36  CB  ALA A   2      27.736  83.519   1.352  0.00  0.00    +0.031 C 
BRANCH  35  39
ATOM     37  C   THR A   1      29.875  83.278   4.245  0.00  0.00    +0.241 C 
ATOM     38  O   THR A   1      30.606  82.328   3.957  0.00  0.00    -0.274 OA
ATOM     39  N   ALA A   2      29.154  83.917   3.333  0.00  0.00    -0.297 N 
ATOM     40  H   ALA A   2      28.560  84.720   3.623  0.00  0.00    +0.150 HD
BRANCH  37  41
ATOM     41  CA  THR A   1      29.772  83.758   5.699  0.00  0.00    +0.172 C 
BRANCH  41  42
ATOM     42  N   THR A   1      30.010  82.603   6.591  0.00  0.00    -0.236 NA
ATOM     43  H   THR A   1      30.903  82.079   6.489  0.00  0.00    +0.142 HD
ENDBRANCH  41  42
BRANCH  41  44
ATOM     44  CB  THR A   1      30.841  84.844   5.908  0.00  0.00    +0.135 C 
ATOM     45  CG2 THR A   1      30.970  85.181   7.413  0.00  0.00    +0.034 C 
BRANCH  44  46
ATOM     46  OG1 THR A   1      32.110  84.333   5.508  0.00  0.00    -0.383 OA
ATOM     47  HG1 THR A   1      32.331  83.538   6.054  0.00  0.00    +0.210 HD
ENDBRANCH  44  46
ENDBRANCH  41  44
ENDBRANCH  37  41
ENDBRANCH  35  39
ENDBRANCH  31  35
ENDBRANCH  30  33
BRANCH  30  48
ATOM     48  CB  MET A   3      33.226  84.227  -0.665  0.00  0.00    +0.041 C 
BRANCH  48  49
ATOM     49  CG  MET A   3      33.987  84.473   0.641  0.00  0.00    +0.060 C 
BRANCH  49  50
ATOM     50  SD  MET A   3      35.560  83.680   0.774  0.00  0.00    -0.139 S 
ATOM     51  CE  MET A   3      36.230  84.659   2.170  0.00  0.00    +0.069 C 
ENDBRANCH  49  50
ENDBRANCH  48  49
ENDBRANCH  30  48
ENDBRANCH  26  30
ENDBRANCH   1  27
BRANCH   1  52
ATOM     52  CB  TYR A   4      28.987  82.988  -3.769  0.00  0.00    +0.055 C 
BRANCH  52  53
ATOM     53  CG  TYR A   4      28.310  82.044  -2.774  0.00  0.00    -0.020 A 
ATOM     54  CD2 TYR A   4      29.040  81.477  -1.720  0.00  0.00    -0.001 A 
ATOM     55  CE2 TYR A   4      28.413  80.648  -0.764  0.00  0.00    +0.036 A 
ATOM     56  CZ  TYR A   4      27.093  80.354  -0.876  0.00  0.00    +0.134 A 
ATOM     57  CE1 TYR A   4      26.327  80.898  -1.913  0.00  0.00    +0.036 A 
ATOM     58  CD1 TYR A   4      26.964  81.744  -2.865  0.00  0.00    -0.001 A 
BRANCH  56  59
ATOM     59  OH  TYR A   4      26.516  79.539   0.053  0.00  0.00    -0.506 OA
ATOM     60  HH  TYR A   4      26.132  78.746  -0.398  0.00  0.00    +0.292 HD
ENDBRANCH  56  59
ENDBRANCH  52  53
ENDBRANCH   1  52
TORSDOF 24
REMARK  Name = ../refined-set-2016/2wm0/2wm0_pocket.pdb
REMARK  252 active torsions:
REMARK  status: ('A' for Active; 'I' for Inactive)
REMARK    1  A    between atoms: _1  and  _3
REMARK    2  A    between atoms: _3  and  _4
REMARK    3  A    between atoms: _3  and  _6
REMARK    4  A    between atoms: _6  and  _7
REMARK    5  A    between atoms: _12  and  _13
REMARK    6  A    between atoms: _15  and  _17
REMARK    7  A    between atoms: _17  and  _18
REMARK    8  A    between atoms: _17  and  _20
REMARK    9  A    between atoms: _23  and  _25
REMARK   10  A    between atoms: _25  and  _26
REMARK   11  A    between atoms: _25  and  _28
REMARK   12  A    between atoms: _28  and  _29
REMARK   13  A    between atoms: _29  and  _30
REMARK   14  A    between atoms: _33  and  _35
REMARK   15  A    between atoms: _35  and  _36
REMARK   16  A    between atoms: _35  and  _38
REMARK   17  A    between atoms: _38  and  _39
REMARK   18  A    between atoms: _49  and  _51
REMARK   19  A    between atoms: _51  and  _52
REMARK   20  A    between atoms: _54  and  _56
REMARK   21  A    between atoms: _56  and  _57
REMARK   22  A    between atoms: _56  and  _59
REMARK   23  A    between atoms: _59  and  _60
REMARK   24  A    between atoms: _65  and  _66
REMARK   25  A    between atoms: _68  and  _70
REMARK   26  A    between atoms: _70  and  _71
REMARK   27  A    between atoms: _73  and  _75
REMARK   28  A    between atoms: _75  and  _76
REMARK   29  A    between atoms: _75  and  _78
REMARK   30  A    between atoms: _78  and  _79
REMARK   31  A    between atoms: _79  and  _80
REMARK   32  A    between atoms: _80  and  _81
REMARK   33  A    between atoms: _90  and  _92
REMARK   34  A    between atoms: _92  and  _93
REMARK   35  A    between atoms: _92  and  _95
REMARK   36  A    between atoms: _95  and  _96
REMARK   37  A    between atoms: _99  and  _101
REMARK   38  A    between atoms: _101  and  _102
REMARK   39  A    between atoms: _104  and  _106
REMARK   40  A    between atoms: _106  and  _107
REMARK   41  A    between atoms: _106  and  _109
REMARK   42  A    between atoms: _109  and  _110
REMARK   43  A    between atoms: _116  and  _118
REMARK   44  A    between atoms: _118  and  _119
REMARK   45  A    between atoms: _118  and  _121
REMARK   46  A    between atoms: _121  and  _122
REMARK   47  A    between atoms: _126  and  _127
REMARK   48  A    between atoms: _132  and  _134
REMARK   49  A    between atoms: _134  and  _135
REMARK   50  A    between atoms: _134  and  _137
REMARK   51  A    between atoms: _137  and  _138
REMARK   52  A    between atoms: _140  and  _142
REMARK   53  A    between atoms: _142  and  _143
REMARK   54  A    between atoms: _142  and  _145
REMARK   55  A    between atoms: _145  and  _146
REMARK   56  A    between atoms: _149  and  _151
REMARK   57  A    between atoms: _151  and  _152
REMARK   58  A    between atoms: _151  and  _154
REMARK   59  A    between atoms: _154  and  _155
REMARK   60  A    between atoms: _155  and  _156
REMARK   61  A    between atoms: _159  and  _161
REMARK   62  A    between atoms: _161  and  _162
REMARK   63  A    between atoms: _161  and  _164
REMARK   64  A    between atoms: _164  and  _165
REMARK   65  A    between atoms: _168  and  _170
REMARK   66  A    between atoms: _170  and  _171
REMARK   67  A    between atoms: _170  and  _173
REMARK   68  A    between atoms: _173  and  _174
REMARK   69  A    between atoms: _174  and  _175
REMARK   70  A    between atoms: _178  and  _180
REMARK   71  A    between atoms: _180  and  _181
REMARK   72  A    between atoms: _183  and  _185
REMARK   73  A    between atoms: _185  and  _186
REMARK   74  A    between atoms: _185  and  _188
REMARK   75  A    between atoms: _188  and  _189
REMARK   76  A    between atoms: _191  and  _193
REMARK   77  A    between atoms: _193  and  _194
REMARK   78  A    between atoms: _193  and  _196
REMARK   79  A    between atoms: _196  and  _197
REMARK   80  A    between atoms: _203  and  _205
REMARK   81  A    between atoms: _205  and  _206
REMARK   82  A    between atoms: _205  and  _208
REMARK   83  A    between atoms: _208  and  _209
REMARK   84  A    between atoms: _214  and  _216
REMARK   85  A    between atoms: _216  and  _217
REMARK   86  A    between atoms: _216  and  _219
REMARK   87  A    between atoms: _219  and  _220
REMARK   88  A    between atoms: _223  and  _225
REMARK   89  A    between atoms: _225  and  _226
REMARK   90  A    between atoms: _225  and  _228
REMARK   91  A    between atoms: _228  and  _229
REMARK   92  A    between atoms: _231  and  _233
REMARK   93  A    between atoms: _233  and  _234
REMARK   94  A    between atoms: _233  and  _236
REMARK   95  A    between atoms: _236  and  _237
REMARK   96  A    between atoms: _240  and  _242
REMARK   97  A    between atoms: _242  and  _243
REMARK   98  A    between atoms: _245  and  _247
REMARK   99  A    between atoms: _247  and  _248
REMARK  100  A    between atoms: _250  and  _252
REMARK  101  A    between atoms: _252  and  _253
REMARK  102  A    between atoms: _252  and  _255
REMARK  103  A    between atoms: _255  and  _256
REMARK  104  A    between atoms: _266  and  _268
REMARK  105  A    between atoms: _268  and  _269
REMARK  106  A    between atoms: _268  and  _271
REMARK  107  A    between atoms: _271  and  _272
REMARK  108  A    between atoms: _275  and  _277
REMARK  109  A    between atoms: _277  and  _278
REMARK  110  A    between atoms: _277  and  _280
REMARK  111  A    between atoms: _280  and  _281
REMARK  112  A    between atoms: _284  and  _286
REMARK  113  A    between atoms: _286  and  _287
REMARK  114  A    between atoms: _286  and  _289
REMARK  115  A    between atoms: _289  and  _290
REMARK  116  A    between atoms: _292  and  _294
REMARK  117  A    between atoms: _294  and  _295
REMARK  118  A    between atoms: _294  and  _297
REMARK  119  A    between atoms: _297  and  _298
REMARK  120  A    between atoms: _301  and  _303
REMARK  121  A    between atoms: _303  and  _304
REMARK  122  A    between atoms: _303  and  _306
REMARK  123  A    between atoms: _306  and  _307
REMARK  124  A    between atoms: _310  and  _312
REMARK  125  A    between atoms: _312  and  _313
REMARK  126  A    between atoms: _312  and  _315
REMARK  127  A    between atoms: _315  and  _316
REMARK  128  A    between atoms: _319  and  _321
REMARK  129  A    between atoms: _321  and  _322
REMARK  130  A    between atoms: _321  and  _324
REMARK  131  A    between atoms: _324  and  _325
REMARK  132  A    between atoms: _335  and  _337
REMARK  133  A    between atoms: _337  and  _338
REMARK  134  A    between atoms: _337  and  _340
REMARK  135  A    between atoms: _340  and  _341
REMARK  136  A    between atoms: _341  and  _342
REMARK  137  A    between atoms: _345  and  _347
REMARK  138  A    between atoms: _347  and  _348
REMARK  139  A    between atoms: _347  and  _350
REMARK  140  A    between atoms: _350  and  _351
REMARK  141  A    between atoms: _357  and  _359
REMARK  142  A    between atoms: _359  and  _360
REMARK  143  A    between atoms: _363  and  _365
REMARK  144  A    between atoms: _365  and  _366
REMARK  145  A    between atoms: _365  and  _368
REMARK  146  A    between atoms: _368  and  _369
REMARK  147  A    between atoms: _371  and  _373
REMARK  148  A    between atoms: _373  and  _374
REMARK  149  A    between atoms: _377  and  _379
REMARK  150  A    between atoms: _379  and  _380
REMARK  151  A    between atoms: _379  and  _382
REMARK  152  A    between atoms: _382  and  _383
REMARK  153  A    between atoms: _386  and  _388
REMARK  154  A    between atoms: _388  and  _389
REMARK  155  A    between atoms: _388  and  _391
REMARK  156  A    between atoms: _391  and  _392
REMARK  157  A    between atoms: _398  and  _400
REMARK  158  A    between atoms: _400  and  _401
REMARK  159  A    between atoms: _400  and  _403
REMARK  160  A    between atoms: _403  and  _404
REMARK  161  A    between atoms: _404  and  _405
REMARK  162  A    between atoms: _407  and  _409
REMARK  163  A    between atoms: _409  and  _410
REMARK  164  A    between atoms: _409  and  _412
REMARK  165  A    between atoms: _412  and  _413
REMARK  166  A    between atoms: _418  and  _419
REMARK  167  A    between atoms: _421  and  _423
REMARK  168  A    between atoms: _423  and  _424
REMARK  169  A    between atoms: _423  and  _426
REMARK  170  A    between atoms: _426  and  _427
REMARK  171  A    between atoms: _430  and  _432
REMARK  172  A    between atoms: _432  and  _433
REMARK  173  A    between atoms: _432  and  _435
REMARK  174  A    between atoms: _435  and  _436
REMARK  175  A    between atoms: _442  and  _444
REMARK  176  A    between atoms: _444  and  _445
REMARK  177  A    between atoms: _444  and  _447
REMARK  178  A    between atoms: _447  and  _448
REMARK  179  A    between atoms: _448  and  _449
REMARK  180  A    between atoms: _454  and  _456
REMARK  181  A    between atoms: _456  and  _457
REMARK  182  A    between atoms: _456  and  _459
REMARK  183  A    between atoms: _459  and  _460
REMARK  184  A    between atoms: _463  and  _465
REMARK  185  A    between atoms: _465  and  _466
REMARK  186  A    between atoms: _469  and  _471
REMARK  187  A    between atoms: _471  and  _472
REMARK  188  A    between atoms: _471  and  _474
REMARK  189  A    between atoms: _474  and  _475
REMARK  190  A    between atoms: _475  and  _476
REMARK  191  A    between atoms: _478  and  _480
REMARK  192  A    between atoms: _480  and  _481
REMARK  193  A    between atoms: _480  and  _483
REMARK  194  A    between atoms: _483  and  _484
REMARK  195  A    between atoms: _489  and  _490
REMARK  196  A    between atoms: _492  and  _494
REMARK  197  A    between atoms: _494  and  _495
REMARK  198  A    between atoms: _497  and  _499
REMARK  199  A    between atoms: _499  and  _500
REMARK  200  A    between atoms: _499  and  _502
REMARK  201  A    between atoms: _502  and  _503
REMARK  202  A    between atoms: _503  and  _504
REMARK  203  A    between atoms: _504  and  _505
REMARK  204  A    between atoms: _514  and  _516
REMARK  205  A    between atoms: _516  and  _517
REMARK  206  A    between atoms: _516  and  _519
REMARK  207  A    between atoms: _519  and  _520
REMARK  208  A    between atoms: _530  and  _532
REMARK  209  A    between atoms: _532  and  _533
REMARK  210  A    between atoms: _532  and  _535
REMARK  211  A    between atoms: _535  and  _536
REMARK  212  A    between atoms: _536  and  _537
REMARK  213  A    between atoms: _540  and  _542
REMARK  214  A    between atoms: _542  and  _543
REMARK  215  A    between atoms: _542  and  _545
REMARK  216  A    between atoms: _545  and  _546
REMARK  217  A    between atoms: _551  and  _553
REMARK  218  A    between atoms: _553  and  _554
REMARK  219  A    between atoms: _556  and  _558
REMARK  220  A    between atoms: _558  and  _559
REMARK  221  A    between atoms: _558  and  _561
REMARK  222  A    between atoms: _561  and  _562
REMARK  223  A    between atoms: _565  and  _567
REMARK  224  A    between atoms: _567  and  _568
REMARK  225  A    between atoms: _567  and  _570
REMARK  226  A    between atoms: _573  and  _575
REMARK  227  A    between atoms: _575  and  _576
REMARK  228  A    between atoms: _575  and  _578
REMARK  229  A    between atoms: _578  and  _579
REMARK  230  A    between atoms: _582  and  _584
REMARK  231  A    between atoms: _584  and  _585
REMARK  232  A    between atoms: _584  and  _587
REMARK  233  A    between atoms: _587  and  _588
REMARK  234  A    between atoms: _594  and  _596
REMARK  235  A    between atoms: _596  and  _597
REMARK  236  A    between atoms: _596  and  _599
REMARK  237  A    between atoms: _599  and  _600
REMARK  238  A    between atoms: _602  and  _604
REMARK  239  A    between atoms: _604  and  _605
REMARK  240  A    between atoms: _604  and  _607
REMARK  241  A    between atoms: _607  and  _608
REMARK  242  A    between atoms: _618  and  _620
REMARK  243  A    between atoms: _620  and  _621
REMARK  244  A    between atoms: _620  and  _623
REMARK  245  A    between atoms: _623  and  _624
REMARK  246  A    between atoms: _624  and  _625
REMARK  247  A    between atoms: _628  and  _630
REMARK  248  A    between atoms: _630  and  _631
REMARK  249  A    between atoms: _630  and  _633
REMARK  250  A    between atoms: _633  and  _634
REMARK  251  A    between atoms: _637  and  _639
REMARK  252  A    between atoms: _639  and  _640
REMARK                            x       y       z     vdW  Elec       q    Type
REMARK                         _______ _______ _______ _____ _____    ______ ____
ROOT
ATOM      1  CA  ASN A   3      22.855  79.560 -12.742  0.00  0.00    +0.158 C 
ENDROOT
BRANCH   1   2
ATOM      2  C   ASN A   3      22.512  79.786 -11.301  0.00  0.00    +0.241 C 
ATOM      3  O   ASN A   3      22.578  78.847 -10.498  0.00  0.00    -0.273 OA
ATOM      4  N   GLY A   4      22.098  81.011 -10.971  0.00  0.00    -0.295 N 
ATOM      5  H   GLY A   4      22.172  81.789 -11.657  0.00  0.00    +0.150 HD
BRANCH   4   6
ATOM      6  CA  GLY A   4      21.542  81.255  -9.645  0.00  0.00    +0.176 C 
BRANCH   6   7
ATOM      7  C   GLY A   4      22.591  81.637  -8.593  0.00  0.00    +0.243 C 
ATOM      8  O   GLY A   4      22.229  81.935  -7.443  0.00  0.00    -0.273 OA
ATOM      9  N   ILE A   5      23.865  81.683  -8.990  0.00  0.00    -0.297 N 
ATOM     10  H   ILE A   5      24.078  81.533  -9.997  0.00  0.00    +0.150 HD
BRANCH   9  11
ATOM     11  CA  ILE A   5      24.990  81.939  -8.058  0.00  0.00    +0.149 C 
BRANCH  11  12
ATOM     12  C   ILE A   5      26.031  82.857  -8.708  0.00  0.00    +0.241 C 
ATOM     13  N   VAL A   6      26.482  83.849  -7.955  0.00  0.00    -0.297 N 
ATOM     14  H   VAL A   6      26.138  83.949  -6.979  0.00  0.00    +0.150 HD
ATOM     15  O   ILE A   5      26.461  82.634  -9.833  0.00  0.00    -0.273 OA
BRANCH  13  16
ATOM     16  CA  VAL A   6      27.469  84.817  -8.484  0.00  0.00    +0.149 C 
BRANCH  16  17
ATOM     17  C   VAL A   6      28.624  84.991  -7.511  0.00  0.00    +0.241 C 
ATOM     18  O   VAL A   6      28.377  85.151  -6.342  0.00  0.00    -0.273 OA
ATOM     19  N   ASP A   7      29.863  84.917  -7.992  0.00  0.00    -0.298 N 
ATOM     20  H   ASP A   7      30.008  84.687  -8.996  0.00  0.00    +0.150 HD
BRANCH  19  21
ATOM     21  CA  ASP A   7      31.031  85.155  -7.130  0.00  0.00    +0.148 C 
BRANCH  21  22
ATOM     22  C   ASP A   7      30.903  86.543  -6.520  0.00  0.00    +0.227 C 
ATOM     23  O   ASP A   7      30.505  87.486  -7.218  0.00  0.00    -0.286 OA
ENDBRANCH  21  22
BRANCH  21  24
ATOM     24  CB  ASP A   7      32.329  85.130  -7.944  0.00  0.00    +0.142 C 
BRANCH  24  25
ATOM     25  CG  ASP A   7      32.799  83.716  -8.290  0.00  0.00    +0.367 C 
ATOM     26  OD2 ASP A   7      32.187  82.699  -7.873  0.00  0.00    -0.246 OA
ATOM     27  OD1 ASP A   7      33.850  83.613  -8.911  0.00  0.00    -0.246 OA
ENDBRANCH  24  25
ENDBRANCH  21  24
ENDBRANCH  19  21
ENDBRANCH  16  17
BRANCH  16  28
ATOM     28  CB  VAL A   6      26.832  86.217  -8.717  0.00  0.00    +0.027 C 
ATOM     29  CG2 VAL A   6      27.885  87.155  -9.347  0.00  0.00    +0.002 C 
ATOM     30  CG1 VAL A   6      25.566  86.121  -9.559  0.00  0.00    +0.002 C 
ENDBRANCH  16  28
ENDBRANCH  13  16
ENDBRANCH  11  12
BRANCH  11  31
ATOM     31  CB  ILE A   5      25.708  80.598  -7.596  0.00  0.00    +0.027 C 
ATOM     32  CG2 ILE A   5      26.844  80.905  -6.577  0.00  0.00    +0.002 C 
BRANCH  31  33
ATOM     33  CG1 ILE A   5      24.689  79.662  -6.962  0.00  0.00    +0.002 C 
ATOM     34  CD1 ILE A   5      24.818  78.229  -7.382  0.00  0.00    +0.000 C 
ENDBRANCH  31  33
ENDBRANCH  11  31
ENDBRANCH   9  11
ENDBRANCH   6   7
ENDBRANCH   4   6
ENDBRANCH   1   2
BRANCH   1  37
ATOM     35  C   GLU A   2      25.192  79.066 -12.296  0.00  0.00    +0.241 C 
ATOM     36  O   GLU A   2      25.300  79.977 -11.481  0.00  0.00    -0.273 OA
ATOM     37  N   ASN A   3      24.054  78.779 -12.916  0.00  0.00    -0.297 N 
ATOM     38  H   ASN A   3      24.026  77.957 -13.553  0.00  0.00    +0.150 HD
BRANCH  35  39
ATOM     39  CA  GLU A   2      26.357  78.156 -12.617  0.00  0.00    +0.149 C 
BRANCH  39  41
ATOM     40  C   TRP A   1      28.661  78.582 -13.261  0.00  0.00    +0.239 C 
ATOM     41  N   GLU A   2      27.626  78.847 -12.488  0.00  0.00    -0.297 N 
ATOM     42  H   GLU A   2      27.723  79.580 -11.757  0.00  0.00    +0.150 HD
ATOM     43  O   TRP A   1      28.690  77.606 -14.010  0.00  0.00    -0.274 OA
BRANCH  40  44
ATOM     44  CA  TRP A   1      29.872  79.497 -13.126  0.00  0.00    +0.149 C 
BRANCH  44  45
ATOM     45  N   TRP A   1      29.481  80.836 -12.714  0.00  0.00    -0.238 NA
ATOM     46  H   TRP A   1      28.956  80.952 -11.824  0.00  0.00    +0.142 HD
ENDBRANCH  44  45
BRANCH  44  47
ATOM     47  CB  TRP A   1      30.884  78.892 -12.121  0.00  0.00    +0.054 C 
BRANCH  47  48
ATOM     48  CG  TRP A   1      32.000  79.844 -11.775  0.00  0.00    -0.002 A 
ATOM     49  CD1 TRP A   1      32.136  80.543 -10.612  0.00  0.00    +0.068 A 
ATOM     50  NE1 TRP A   1      33.264  81.323 -10.666  0.00  0.00    -0.352 N 
ATOM     51  HE1 TRP A   1      33.599  81.946  -9.904  0.00  0.00    +0.166 HD
ATOM     52  CE2 TRP A   1      33.880  81.156 -11.877  0.00  0.00    +0.056 A 
ATOM     53  CZ2 TRP A   1      35.061  81.733 -12.386  0.00  0.00    +0.017 A 
ATOM     54  CH2 TRP A   1      35.458  81.359 -13.647  0.00  0.00    +0.001 A 
ATOM     55  CZ3 TRP A   1      34.708  80.412 -14.400  0.00  0.00    +0.000 A 
ATOM     56  CE3 TRP A   1      33.539  79.854 -13.895  0.00  0.00    +0.001 A 
ATOM     57  CD2 TRP A   1      33.113  80.221 -12.608  0.00  0.00    +0.013 A 
ENDBRANCH  47  48
ENDBRANCH  44  47
ENDBRANCH  40  44
ENDBRANCH  39  41
BRANCH  39  58
ATOM     58  CB  GLU A   2      26.305  76.905 -11.731  0.00  0.00    +0.041 C 
BRANCH  58  59
ATOM     59  CG  GLU A   2      26.608  77.110 -10.270  0.00  0.00    +0.116 C 
BRANCH  59  60
ATOM     60  CD  GLU A   2      26.937  75.767  -9.540  0.00  0.00    +0.365 C 
ATOM     61  OE2 GLU A   2      25.954  75.046  -9.197  0.00  0.00    -0.246 OA
ATOM     62  OE1 GLU A   2      28.165  75.461  -9.319  0.00  0.00    -0.246 OA
ENDBRANCH  59  60
ENDBRANCH  58  59
ENDBRANCH  39  58
ENDBRANCH  35  39
ENDBRANCH   1  37
BRANCH   1  63
ATOM     63  CB  ASN A   3      21.664  78.809 -13.355  0.00  0.00    +0.114 C 
BRANCH  63  64
ATOM     64  CG  ASN A   3      21.656  78.869 -14.864  0.00  0.00    +0.222 C 
ATOM     65  ND2 ASN A   3      20.812  78.017 -15.474  0.00  0.00    -0.329 N 
ATOM     66 HD21 ASN A   3      20.236  77.361 -14.908  0.00  0.00    +0.145 HD
ATOM     67 HD22 ASN A   3      20.736  78.014 -16.511  0.00  0.00    +0.145 HD
ATOM     68  OD1 ASN A   3      22.372  79.678 -15.491  0.00  0.00    -0.275 OA
ENDBRANCH  63  64
ENDBRANCH   1  63
TORSDOF 26
REMARK  Name = ../refined-set-2016/2wm0/2wm0_pocket.pdb
REMARK  252 active torsions:
REMARK  status: ('A' for Active; 'I' for Inactive)
REMARK    1  A    between atoms: _1  and  _3
REMARK    2  A    between atoms: _3  and  _4
REMARK    3  A    between atoms: _3  and  _6
REMARK    4  A    between atoms: _6  and  _7
REMARK    5  A    between atoms: _12  and  _13
REMARK    6  A    between atoms: _15  and  _17
REMARK    7  A    between atoms: _17  and  _18
REMARK    8  A    between atoms: _17  and  _20
REMARK    9  A    between atoms: _23  and  _25
REMARK   10  A    between atoms: _25  and  _26
REMARK   11  A    between atoms: _25  and  _28
REMARK   12  A    between atoms: _28  and  _29
REMARK   13  A    between atoms: _29  and  _30
REMARK   14  A    between atoms: _33  and  _35
REMARK   15  A    between atoms: _35  and  _36
REMARK   16  A    between atoms: _35  and  _38
REMARK   17  A    between atoms: _38  and  _39
REMARK   18  A    between atoms: _49  and  _51
REMARK   19  A    between atoms: _51  and  _52
REMARK   20  A    between atoms: _54  and  _56
REMARK   21  A    between atoms: _56  and  _57
REMARK   22  A    between atoms: _56  and  _59
REMARK   23  A    between atoms: _59  and  _60
REMARK   24  A    between atoms: _65  and  _66
REMARK   25  A    between atoms: _68  and  _70
REMARK   26  A    between atoms: _70  and  _71
REMARK   27  A    between atoms: _73  and  _75
REMARK   28  A    between atoms: _75  and  _76
REMARK   29  A    between atoms: _75  and  _78
REMARK   30  A    between atoms: _78  and  _79
REMARK   31  A    between atoms: _79  and  _80
REMARK   32  A    between atoms: _80  and  _81
REMARK   33  A    between atoms: _90  and  _92
REMARK   34  A    between atoms: _92  and  _93
REMARK   35  A    between atoms: _92  and  _95
REMARK   36  A    between atoms: _95  and  _96
REMARK   37  A    between atoms: _99  and  _101
REMARK   38  A    between atoms: _101  and  _102
REMARK   39  A    between atoms: _104  and  _106
REMARK   40  A    between atoms: _106  and  _107
REMARK   41  A    between atoms: _106  and  _109
REMARK   42  A    between atoms: _109  and  _110
REMARK   43  A    between atoms: _116  and  _118
REMARK   44  A    between atoms: _118  and  _119
REMARK   45  A    between atoms: _118  and  _121
REMARK   46  A    between atoms: _121  and  _122
REMARK   47  A    between atoms: _126  and  _127
REMARK   48  A    between atoms: _132  and  _134
REMARK   49  A    between atoms: _134  and  _135
REMARK   50  A    between atoms: _134  and  _137
REMARK   51  A    between atoms: _137  and  _138
REMARK   52  A    between atoms: _140  and  _142
REMARK   53  A    between atoms: _142  and  _143
REMARK   54  A    between atoms: _142  and  _145
REMARK   55  A    between atoms: _145  and  _146
REMARK   56  A    between atoms: _149  and  _151
REMARK   57  A    between atoms: _151  and  _152
REMARK   58  A    between atoms: _151  and  _154
REMARK   59  A    between atoms: _154  and  _155
REMARK   60  A    between atoms: _155  and  _156
REMARK   61  A    between atoms: _159  and  _161
REMARK   62  A    between atoms: _161  and  _162
REMARK   63  A    between atoms: _161  and  _164
REMARK   64  A    between atoms: _164  and  _165
REMARK   65  A    between atoms: _168  and  _170
REMARK   66  A    between atoms: _170  and  _171
REMARK   67  A    between atoms: _170  and  _173
REMARK   68  A    between atoms: _173  and  _174
REMARK   69  A    between atoms: _174  and  _175
REMARK   70  A    between atoms: _178  and  _180
REMARK   71  A    between atoms: _180  and  _181
REMARK   72  A    between atoms: _183  and  _185
REMARK   73  A    between atoms: _185  and  _186
REMARK   74  A    between atoms: _185  and  _188
REMARK   75  A    between atoms: _188  and  _189
REMARK   76  A    between atoms: _191  and  _193
REMARK   77  A    between atoms: _193  and  _194
REMARK   78  A    between atoms: _193  and  _196
REMARK   79  A    between atoms: _196  and  _197
REMARK   80  A    between atoms: _203  and  _205
REMARK   81  A    between atoms: _205  and  _206
REMARK   82  A    between atoms: _205  and  _208
REMARK   83  A    between atoms: _208  and  _209
REMARK   84  A    between atoms: _214  and  _216
REMARK   85  A    between atoms: _216  and  _217
REMARK   86  A    between atoms: _216  and  _219
REMARK   87  A    between atoms: _219  and  _220
REMARK   88  A    between atoms: _223  and  _225
REMARK   89  A    between atoms: _225  and  _226
REMARK   90  A    between atoms: _225  and  _228
REMARK   91  A    between atoms: _228  and  _229
REMARK   92  A    between atoms: _231  and  _233
REMARK   93  A    between atoms: _233  and  _234
REMARK   94  A    between atoms: _233  and  _236
REMARK   95  A    between atoms: _236  and  _237
REMARK   96  A    between atoms: _240  and  _242
REMARK   97  A    between atoms: _242  and  _243
REMARK   98  A    between atoms: _245  and  _247
REMARK   99  A    between atoms: _247  and  _248
REMARK  100  A    between atoms: _250  and  _252
REMARK  101  A    between atoms: _252  and  _253
REMARK  102  A    between atoms: _252  and  _255
REMARK  103  A    between atoms: _255  and  _256
REMARK  104  A    between atoms: _266  and  _268
REMARK  105  A    between atoms: _268  and  _269
REMARK  106  A    between atoms: _268  and  _271
REMARK  107  A    between atoms: _271  and  _272
REMARK  108  A    between atoms: _275  and  _277
REMARK  109  A    between atoms: _277  and  _278
REMARK  110  A    between atoms: _277  and  _280
REMARK  111  A    between atoms: _280  and  _281
REMARK  112  A    between atoms: _284  and  _286
REMARK  113  A    between atoms: _286  and  _287
REMARK  114  A    between atoms: _286  and  _289
REMARK  115  A    between atoms: _289  and  _290
REMARK  116  A    between atoms: _292  and  _294
REMARK  117  A    between atoms: _294  and  _295
REMARK  118  A    between atoms: _294  and  _297
REMARK  119  A    between atoms: _297  and  _298
REMARK  120  A    between atoms: _301  and  _303
REMARK  121  A    between atoms: _303  and  _304
REMARK  122  A    between atoms: _303  and  _306
REMARK  123  A    between atoms: _306  and  _307
REMARK  124  A    between atoms: _310  and  _312
REMARK  125  A    between atoms: _312  and  _313
REMARK  126  A    between atoms: _312  and  _315
REMARK  127  A    between atoms: _315  and  _316
REMARK  128  A    between atoms: _319  and  _321
REMARK  129  A    between atoms: _321  and  _322
REMARK  130  A    between atoms: _321  and  _324
REMARK  131  A    between atoms: _324  and  _325
REMARK  132  A    between atoms: _335  and  _337
REMARK  133  A    between atoms: _337  and  _338
REMARK  134  A    between atoms: _337  and  _340
REMARK  135  A    between atoms: _340  and  _341
REMARK  136  A    between atoms: _341  and  _342
REMARK  137  A    between atoms: _345  and  _347
REMARK  138  A    between atoms: _347  and  _348
REMARK  139  A    between atoms: _347  and  _350
REMARK  140  A    between atoms: _350  and  _351
REMARK  141  A    between atoms: _357  and  _359
REMARK  142  A    between atoms: _359  and  _360
REMARK  143  A    between atoms: _363  and  _365
REMARK  144  A    between atoms: _365  and  _366
REMARK  145  A    between atoms: _365  and  _368
REMARK  146  A    between atoms: _368  and  _369
REMARK  147  A    between atoms: _371  and  _373
REMARK  148  A    between atoms: _373  and  _374
REMARK  149  A    between atoms: _377  and  _379
REMARK  150  A    between atoms: _379  and  _380
REMARK  151  A    between atoms: _379  and  _382
REMARK  152  A    between atoms: _382  and  _383
REMARK  153  A    between atoms: _386  and  _388
REMARK  154  A    between atoms: _388  and  _389
REMARK  155  A    between atoms: _388  and  _391
REMARK  156  A    between atoms: _391  and  _392
REMARK  157  A    between atoms: _398  and  _400
REMARK  158  A    between atoms: _400  and  _401
REMARK  159  A    between atoms: _400  and  _403
REMARK  160  A    between atoms: _403  and  _404
REMARK  161  A    between atoms: _404  and  _405
REMARK  162  A    between atoms: _407  and  _409
REMARK  163  A    between atoms: _409  and  _410
REMARK  164  A    between atoms: _409  and  _412
REMARK  165  A    between atoms: _412  and  _413
REMARK  166  A    between atoms: _418  and  _419
REMARK  167  A    between atoms: _421  and  _423
REMARK  168  A    between atoms: _423  and  _424
REMARK  169  A    between atoms: _423  and  _426
REMARK  170  A    between atoms: _426  and  _427
REMARK  171  A    between atoms: _430  and  _432
REMARK  172  A    between atoms: _432  and  _433
REMARK  173  A    between atoms: _432  and  _435
REMARK  174  A    between atoms: _435  and  _436
REMARK  175  A    between atoms: _442  and  _444
REMARK  176  A    between atoms: _444  and  _445
REMARK  177  A    between atoms: _444  and  _447
REMARK  178  A    between atoms: _447  and  _448
REMARK  179  A    between atoms: _448  and  _449
REMARK  180  A    between atoms: _454  and  _456
REMARK  181  A    between atoms: _456  and  _457
REMARK  182  A    between atoms: _456  and  _459
REMARK  183  A    between atoms: _459  and  _460
REMARK  184  A    between atoms: _463  and  _465
REMARK  185  A    between atoms: _465  and  _466
REMARK  186  A    between atoms: _469  and  _471
REMARK  187  A    between atoms: _471  and  _472
REMARK  188  A    between atoms: _471  and  _474
REMARK  189  A    between atoms: _474  and  _475
REMARK  190  A    between atoms: _475  and  _476
REMARK  191  A    between atoms: _478  and  _480
REMARK  192  A    between atoms: _480  and  _481
REMARK  193  A    between atoms: _480  and  _483
REMARK  194  A    between atoms: _483  and  _484
REMARK  195  A    between atoms: _489  and  _490
REMARK  196  A    between atoms: _492  and  _494
REMARK  197  A    between atoms: _494  and  _495
REMARK  198  A    between atoms: _497  and  _499
REMARK  199  A    between atoms: _499  and  _500
REMARK  200  A    between atoms: _499  and  _502
REMARK  201  A    between atoms: _502  and  _503
REMARK  202  A    between atoms: _503  and  _504
REMARK  203  A    between atoms: _504  and  _505
REMARK  204  A    between atoms: _514  and  _516
REMARK  205  A    between atoms: _516  and  _517
REMARK  206  A    between atoms: _516  and  _519
REMARK  207  A    between atoms: _519  and  _520
REMARK  208  A    between atoms: _530  and  _532
REMARK  209  A    between atoms: _532  and  _533
REMARK  210  A    between atoms: _532  and  _535
REMARK  211  A    between atoms: _535  and  _536
REMARK  212  A    between atoms: _536  and  _537
REMARK  213  A    between atoms: _540  and  _542
REMARK  214  A    between atoms: _542  and  _543
REMARK  215  A    between atoms: _542  and  _545
REMARK  216  A    between atoms: _545  and  _546
REMARK  217  A    between atoms: _551  and  _553
REMARK  218  A    between atoms: _553  and  _554
REMARK  219  A    between atoms: _556  and  _558
REMARK  220  A    between atoms: _558  and  _559
REMARK  221  A    between atoms: _558  and  _561
REMARK  222  A    between atoms: _561  and  _562
REMARK  223  A    between atoms: _565  and  _567
REMARK  224  A    between atoms: _567  and  _568
REMARK  225  A    between atoms: _567  and  _570
REMARK  226  A    between atoms: _573  and  _575
REMARK  227  A    between atoms: _575  and  _576
REMARK  228  A    between atoms: _575  and  _578
REMARK  229  A    between atoms: _578  and  _579
REMARK  230  A    between atoms: _582  and  _584
REMARK  231  A    between atoms: _584  and  _585
REMARK  232  A    between atoms: _584  and  _587
REMARK  233  A    between atoms: _587  and  _588
REMARK  234  A    between atoms: _594  and  _596
REMARK  235  A    between atoms: _596  and  _597
REMARK  236  A    between atoms: _596  and  _599
REMARK  237  A    between atoms: _599  and  _600
REMARK  238  A    between atoms: _602  and  _604
REMARK  239  A    between atoms: _604  and  _605
REMARK  240  A    between atoms: _604  and  _607
REMARK  241  A    between atoms: _607  and  _608
REMARK  242  A    between atoms: _618  and  _620
REMARK  243  A    between atoms: _620  and  _621
REMARK  244  A    between atoms: _620  and  _623
REMARK  245  A    between atoms: _623  and  _624
REMARK  246  A    between atoms: _624  and  _625
REMARK  247  A    between atoms: _628  and  _630
REMARK  248  A    between atoms: _630  and  _631
REMARK  249  A    between atoms: _630  and  _633
REMARK  250  A    between atoms: _633  and  _634
REMARK  251  A    between atoms: _637  and  _639
REMARK  252  A    between atoms: _639  and  _640
REMARK                            x       y       z     vdW  Elec       q    Type
REMARK                         _______ _______ _______ _____ _____    ______ ____
ROOT
ATOM      1  CA  TRP A   3      32.679  79.296   1.272  0.00  0.00    +0.153 C 
ENDROOT
BRANCH   1   4
ATOM      2  C   SER A   2      33.598  80.006   3.442  0.00  0.00    +0.243 C 
ATOM      3  O   SER A   2      34.539  79.187   3.405  0.00  0.00    -0.273 OA
ATOM      4  N   TRP A   3      32.650  80.095   2.511  0.00  0.00    -0.297 N 
ATOM      5  H   TRP A   3      31.859  80.753   2.664  0.00  0.00    +0.150 HD
BRANCH   2   6
ATOM      6  CA  SER A   2      33.546  81.051   4.522  0.00  0.00    +0.178 C 
BRANCH   6   9
ATOM      7  C   PHE A   1      33.649  80.963   6.931  0.00  0.00    +0.239 C 
ATOM      8  O   PHE A   1      32.566  81.532   7.017  0.00  0.00    -0.274 OA
ATOM      9  N   SER A   2      34.175  80.617   5.760  0.00  0.00    -0.295 N 
ATOM     10  H   SER A   2      35.037  80.036   5.729  0.00  0.00    +0.150 HD
BRANCH   7  11
ATOM     11  CA  PHE A   1      34.471  80.642   8.163  0.00  0.00    +0.149 C 
BRANCH  11  12
ATOM     12  N   PHE A   1      33.838  81.347   9.298  0.00  0.00    -0.238 NA
ATOM     13  H   PHE A   1      32.801  81.401   9.360  0.00  0.00    +0.142 HD
ENDBRANCH  11  12
BRANCH  11  14
ATOM     14  CB  PHE A   1      34.527  79.110   8.407  0.00  0.00    +0.053 C 
BRANCH  14  15
ATOM     15  CG  PHE A   1      33.190  78.420   8.129  0.00  0.00    -0.020 A 
ATOM     16  CD2 PHE A   1      32.137  78.524   9.068  0.00  0.00    -0.004 A 
ATOM     17  CE2 PHE A   1      30.864  77.951   8.823  0.00  0.00    -0.000 A 
ATOM     18  CZ  PHE A   1      30.631  77.271   7.607  0.00  0.00    -0.000 A 
ATOM     19  CE1 PHE A   1      31.678  77.206   6.629  0.00  0.00    -0.000 A 
ATOM     20  CD1 PHE A   1      32.955  77.784   6.907  0.00  0.00    -0.004 A 
ENDBRANCH  14  15
ENDBRANCH  11  14
ENDBRANCH   7  11
ENDBRANCH   6   9
BRANCH   6  21
ATOM     21  CB  SER A   2      34.279  82.290   4.008  0.00  0.00    +0.166 C 
BRANCH  21  22
ATOM     22  OG  SER A   2      35.673  82.050   3.942  0.00  0.00    -0.380 OA
ATOM     23  H   SER A   2      35.848  81.294   3.327  0.00  0.00    +0.211 HD
ENDBRANCH  21  22
ENDBRANCH   6  21
ENDBRANCH   2   6
ENDBRANCH   1   4
BRANCH   1  24
ATOM     24  C   TRP A   3      32.553  80.305   0.124  0.00  0.00    +0.241 C 
ATOM     25  O   TRP A   3      31.601  81.085   0.140  0.00  0.00    -0.273 OA
ATOM     26  N   GLU A   4      33.429  80.330  -0.883  0.00  0.00    -0.298 N 
ATOM     27  H   GLU A   4      33.227  81.014  -1.640  0.00  0.00    +0.150 HD
BRANCH  26  28
ATOM     28  CA  GLU A   4      34.621  79.533  -1.060  0.00  0.00    +0.137 C 
BRANCH  28  29
ATOM     29  C   GLU A   4      35.681  80.563  -1.421  0.00  0.00    +0.227 C 
ATOM     30  O   GLU A   4      35.344  81.586  -2.017  0.00  0.00    -0.286 OA
ENDBRANCH  28  29
BRANCH  28  31
ATOM     31  CB  GLU A   4      34.427  78.517  -2.215  0.00  0.00    +0.039 C 
BRANCH  31  32
ATOM     32  CG  GLU A   4      33.849  79.122  -3.525  0.00  0.00    +0.116 C 
BRANCH  32  33
ATOM     33  CD  GLU A   4      33.725  78.066  -4.615  0.00  0.00    +0.365 C 
ATOM     34  OE2 GLU A   4      32.612  77.556  -4.722  0.00  0.00    -0.246 OA
ATOM     35  OE1 GLU A   4      34.710  77.740  -5.321  0.00  0.00    -0.246 OA
ENDBRANCH  32  33
ENDBRANCH  31  32
ENDBRANCH  28  31
ENDBRANCH  26  28
ENDBRANCH   1  24
BRANCH   1  36
ATOM     36  CB  TRP A   3      31.448  78.357   1.238  0.00  0.00    +0.057 C 
BRANCH  36  37
ATOM     37  CG  TRP A   3      31.384  77.579  -0.079  0.00  0.00    -0.002 A 
ATOM     38  CD2 TRP A   3      31.964  76.288  -0.328  0.00  0.00    +0.013 A 
ATOM     39  CE3 TRP A   3      32.672  75.376   0.467  0.00  0.00    +0.001 A 
ATOM     40  CZ3 TRP A   3      33.131  74.145  -0.119  0.00  0.00    +0.000 A 
ATOM     41  CH2 TRP A   3      32.870  73.856  -1.472  0.00  0.00    +0.001 A 
ATOM     42  CZ2 TRP A   3      32.176  74.741  -2.281  0.00  0.00    +0.017 A 
ATOM     43  CE2 TRP A   3      31.732  75.975  -1.693  0.00  0.00    +0.056 A 
ATOM     44  NE1 TRP A   3      31.023  77.028  -2.239  0.00  0.00    -0.352 N 
ATOM     45  HE1 TRP A   3      30.696  77.089  -3.224  0.00  0.00    +0.166 HD
ATOM     46  CD1 TRP A   3      30.818  77.986  -1.267  0.00  0.00    +0.068 A 
ENDBRANCH  36  37
ENDBRANCH   1  36
TORSDOF 17
REMARK  Name = ../refined-set-2016/2wm0/2wm0_pocket.pdb
REMARK  252 active torsions:
REMARK  status: ('A' for Active; 'I' for Inactive)
REMARK    1  A    between atoms: _1  and  _3
REMARK    2  A    between atoms: _3  and  _4
REMARK    3  A    between atoms: _3  and  _6
REMARK    4  A    between atoms: _6  and  _7
REMARK    5  A    between atoms: _12  and  _13
REMARK    6  A    between atoms: _15  and  _17
REMARK    7  A    between atoms: _17  and  _18
REMARK    8  A    between atoms: _17  and  _20
REMARK    9  A    between atoms: _23  and  _25
REMARK   10  A    between atoms: _25  and  _26
REMARK   11  A    between atoms: _25  and  _28
REMARK   12  A    between atoms: _28  and  _29
REMARK   13  A    between atoms: _29  and  _30
REMARK   14  A    between atoms: _33  and  _35
REMARK   15  A    between atoms: _35  and  _36
REMARK   16  A    between atoms: _35  and  _38
REMARK   17  A    between atoms: _38  and  _39
REMARK   18  A    between atoms: _49  and  _51
REMARK   19  A    between atoms: _51  and  _52
REMARK   20  A    between atoms: _54  and  _56
REMARK   21  A    between atoms: _56  and  _57
REMARK   22  A    between atoms: _56  and  _59
REMARK   23  A    between atoms: _59  and  _60
REMARK   24  A    between atoms: _65  and  _66
REMARK   25  A    between atoms: _68  and  _70
REMARK   26  A    between atoms: _70  and  _71
REMARK   27  A    between atoms: _73  and  _75
REMARK   28  A    between atoms: _75  and  _76
REMARK   29  A    between atoms: _75  and  _78
REMARK   30  A    between atoms: _78  and  _79
REMARK   31  A    between atoms: _79  and  _80
REMARK   32  A    between atoms: _80  and  _81
REMARK   33  A    between atoms: _90  and  _92
REMARK   34  A    between atoms: _92  and  _93
REMARK   35  A    between atoms: _92  and  _95
REMARK   36  A    between atoms: _95  and  _96
REMARK   37  A    between atoms: _99  and  _101
REMARK   38  A    between atoms: _101  and  _102
REMARK   39  A    between atoms: _104  and  _106
REMARK   40  A    between atoms: _106  and  _107
REMARK   41  A    between atoms: _106  and  _109
REMARK   42  A    between atoms: _109  and  _110
REMARK   43  A    between atoms: _116  and  _118
REMARK   44  A    between atoms: _118  and  _119
REMARK   45  A    between atoms: _118  and  _121
REMARK   46  A    between atoms: _121  and  _122
REMARK   47  A    between atoms: _126  and  _127
REMARK   48  A    between atoms: _132  and  _134
REMARK   49  A    between atoms: _134  and  _135
REMARK   50  A    between atoms: _134  and  _137
REMARK   51  A    between atoms: _137  and  _138
REMARK   52  A    between atoms: _140  and  _142
REMARK   53  A    between atoms: _142  and  _143
REMARK   54  A    between atoms: _142  and  _145
REMARK   55  A    between atoms: _145  and  _146
REMARK   56  A    between atoms: _149  and  _151
REMARK   57  A    between atoms: _151  and  _152
REMARK   58  A    between atoms: _151  and  _154
REMARK   59  A    between atoms: _154  and  _155
REMARK   60  A    between atoms: _155  and  _156
REMARK   61  A    between atoms: _159  and  _161
REMARK   62  A    between atoms: _161  and  _162
REMARK   63  A    between atoms: _161  and  _164
REMARK   64  A    between atoms: _164  and  _165
REMARK   65  A    between atoms: _168  and  _170
REMARK   66  A    between atoms: _170  and  _171
REMARK   67  A    between atoms: _170  and  _173
REMARK   68  A    between atoms: _173  and  _174
REMARK   69  A    between atoms: _174  and  _175
REMARK   70  A    between atoms: _178  and  _180
REMARK   71  A    between atoms: _180  and  _181
REMARK   72  A    between atoms: _183  and  _185
REMARK   73  A    between atoms: _185  and  _186
REMARK   74  A    between atoms: _185  and  _188
REMARK   75  A    between atoms: _188  and  _189
REMARK   76  A    between atoms: _191  and  _193
REMARK   77  A    between atoms: _193  and  _194
REMARK   78  A    between atoms: _193  and  _196
REMARK   79  A    between atoms: _196  and  _197
REMARK   80  A    between atoms: _203  and  _205
REMARK   81  A    between atoms: _205  and  _206
REMARK   82  A    between atoms: _205  and  _208
REMARK   83  A    between atoms: _208  and  _209
REMARK   84  A    between atoms: _214  and  _216
REMARK   85  A    between atoms: _216  and  _217
REMARK   86  A    between atoms: _216  and  _219
REMARK   87  A    between atoms: _219  and  _220
REMARK   88  A    between atoms: _223  and  _225
REMARK   89  A    between atoms: _225  and  _226
REMARK   90  A    between atoms: _225  and  _228
REMARK   91  A    between atoms: _228  and  _229
REMARK   92  A    between atoms: _231  and  _233
REMARK   93  A    between atoms: _233  and  _234
REMARK   94  A    between atoms: _233  and  _236
REMARK   95  A    between atoms: _236  and  _237
REMARK   96  A    between atoms: _240  and  _242
REMARK   97  A    between atoms: _242  and  _243
REMARK   98  A    between atoms: _245  and  _247
REMARK   99  A    between atoms: _247  and  _248
REMARK  100  A    between atoms: _250  and  _252
REMARK  101  A    between atoms: _252  and  _253
REMARK  102  A    between atoms: _252  and  _255
REMARK  103  A    between atoms: _255  and  _256
REMARK  104  A    between atoms: _266  and  _268
REMARK  105  A    between atoms: _268  and  _269
REMARK  106  A    between atoms: _268  and  _271
REMARK  107  A    between atoms: _271  and  _272
REMARK  108  A    between atoms: _275  and  _277
REMARK  109  A    between atoms: _277  and  _278
REMARK  110  A    between atoms: _277  and  _280
REMARK  111  A    between atoms: _280  and  _281
REMARK  112  A    between atoms: _284  and  _286
REMARK  113  A    between atoms: _286  and  _287
REMARK  114  A    between atoms: _286  and  _289
REMARK  115  A    between atoms: _289  and  _290
REMARK  116  A    between atoms: _292  and  _294
REMARK  117  A    between atoms: _294  and  _295
REMARK  118  A    between atoms: _294  and  _297
REMARK  119  A    between atoms: _297  and  _298
REMARK  120  A    between atoms: _301  and  _303
REMARK  121  A    between atoms: _303  and  _304
REMARK  122  A    between atoms: _303  and  _306
REMARK  123  A    between atoms: _306  and  _307
REMARK  124  A    between atoms: _310  and  _312
REMARK  125  A    between atoms: _312  and  _313
REMARK  126  A    between atoms: _312  and  _315
REMARK  127  A    between atoms: _315  and  _316
REMARK  128  A    between atoms: _319  and  _321
REMARK  129  A    between atoms: _321  and  _322
REMARK  130  A    between atoms: _321  and  _324
REMARK  131  A    between atoms: _324  and  _325
REMARK  132  A    between atoms: _335  and  _337
REMARK  133  A    between atoms: _337  and  _338
REMARK  134  A    between atoms: _337  and  _340
REMARK  135  A    between atoms: _340  and  _341
REMARK  136  A    between atoms: _341  and  _342
REMARK  137  A    between atoms: _345  and  _347
REMARK  138  A    between atoms: _347  and  _348
REMARK  139  A    between atoms: _347  and  _350
REMARK  140  A    between atoms: _350  and  _351
REMARK  141  A    between atoms: _357  and  _359
REMARK  142  A    between atoms: _359  and  _360
REMARK  143  A    between atoms: _363  and  _365
REMARK  144  A    between atoms: _365  and  _366
REMARK  145  A    between atoms: _365  and  _368
REMARK  146  A    between atoms: _368  and  _369
REMARK  147  A    between atoms: _371  and  _373
REMARK  148  A    between atoms: _373  and  _374
REMARK  149  A    between atoms: _377  and  _379
REMARK  150  A    between atoms: _379  and  _380
REMARK  151  A    between atoms: _379  and  _382
REMARK  152  A    between atoms: _382  and  _383
REMARK  153  A    between atoms: _386  and  _388
REMARK  154  A    between atoms: _388  and  _389
REMARK  155  A    between atoms: _388  and  _391
REMARK  156  A    between atoms: _391  and  _392
REMARK  157  A    between atoms: _398  and  _400
REMARK  158  A    between atoms: _400  and  _401
REMARK  159  A    between atoms: _400  and  _403
REMARK  160  A    between atoms: _403  and  _404
REMARK  161  A    between atoms: _404  and  _405
REMARK  162  A    between atoms: _407  and  _409
REMARK  163  A    between atoms: _409  and  _410
REMARK  164  A    between atoms: _409  and  _412
REMARK  165  A    between atoms: _412  and  _413
REMARK  166  A    between atoms: _418  and  _419
REMARK  167  A    between atoms: _421  and  _423
REMARK  168  A    between atoms: _423  and  _424
REMARK  169  A    between atoms: _423  and  _426
REMARK  170  A    between atoms: _426  and  _427
REMARK  171  A    between atoms: _430  and  _432
REMARK  172  A    between atoms: _432  and  _433
REMARK  173  A    between atoms: _432  and  _435
REMARK  174  A    between atoms: _435  and  _436
REMARK  175  A    between atoms: _442  and  _444
REMARK  176  A    between atoms: _444  and  _445
REMARK  177  A    between atoms: _444  and  _447
REMARK  178  A    between atoms: _447  and  _448
REMARK  179  A    between atoms: _448  and  _449
REMARK  180  A    between atoms: _454  and  _456
REMARK  181  A    between atoms: _456  and  _457
REMARK  182  A    between atoms: _456  and  _459
REMARK  183  A    between atoms: _459  and  _460
REMARK  184  A    between atoms: _463  and  _465
REMARK  185  A    between atoms: _465  and  _466
REMARK  186  A    between atoms: _469  and  _471
REMARK  187  A    between atoms: _471  and  _472
REMARK  188  A    between atoms: _471  and  _474
REMARK  189  A    between atoms: _474  and  _475
REMARK  190  A    between atoms: _475  and  _476
REMARK  191  A    between atoms: _478  and  _480
REMARK  192  A    between atoms: _480  and  _481
REMARK  193  A    between atoms: _480  and  _483
REMARK  194  A    between atoms: _483  and  _484
REMARK  195  A    between atoms: _489  and  _490
REMARK  196  A    between atoms: _492  and  _494
REMARK  197  A    between atoms: _494  and  _495
REMARK  198  A    between atoms: _497  and  _499
REMARK  199  A    between atoms: _499  and  _500
REMARK  200  A    between atoms: _499  and  _502
REMARK  201  A    between atoms: _502  and  _503
REMARK  202  A    between atoms: _503  and  _504
REMARK  203  A    between atoms: _504  and  _505
REMARK  204  A    between atoms: _514  and  _516
REMARK  205  A    between atoms: _516  and  _517
REMARK  206  A    between atoms: _516  and  _519
REMARK  207  A    between atoms: _519  and  _520
REMARK  208  A    between atoms: _530  and  _532
REMARK  209  A    between atoms: _532  and  _533
REMARK  210  A    between atoms: _532  and  _535
REMARK  211  A    between atoms: _535  and  _536
REMARK  212  A    between atoms: _536  and  _537
REMARK  213  A    between atoms: _540  and  _542
REMARK  214  A    between atoms: _542  and  _543
REMARK  215  A    between atoms: _542  and  _545
REMARK  216  A    between atoms: _545  and  _546
REMARK  217  A    between atoms: _551  and  _553
REMARK  218  A    between atoms: _553  and  _554
REMARK  219  A    between atoms: _556  and  _558
REMARK  220  A    between atoms: _558  and  _559
REMARK  221  A    between atoms: _558  and  _561
REMARK  222  A    between atoms: _561  and  _562
REMARK  223  A    between atoms: _565  and  _567
REMARK  224  A    between atoms: _567  and  _568
REMARK  225  A    between atoms: _567  and  _570
REMARK  226  A    between atoms: _573  and  _575
REMARK  227  A    between atoms: _575  and  _576
REMARK  228  A    between atoms: _575  and  _578
REMARK  229  A    between atoms: _578  and  _579
REMARK  230  A    between atoms: _582  and  _584
REMARK  231  A    between atoms: _584  and  _585
REMARK  232  A    between atoms: _584  and  _587
REMARK  233  A    between atoms: _587  and  _588
REMARK  234  A    between atoms: _594  and  _596
REMARK  235  A    between atoms: _596  and  _597
REMARK  236  A    between atoms: _596  and  _599
REMARK  237  A    between atoms: _599  and  _600
REMARK  238  A    between atoms: _602  and  _604
REMARK  239  A    between atoms: _604  and  _605
REMARK  240  A    between atoms: _604  and  _607
REMARK  241  A    between atoms: _607  and  _608
REMARK  242  A    between atoms: _618  and  _620
REMARK  243  A    between atoms: _620  and  _621
REMARK  244  A    between atoms: _620  and  _623
REMARK  245  A    between atoms: _623  and  _624
REMARK  246  A    between atoms: _624  and  _625
REMARK  247  A    between atoms: _628  and  _630
REMARK  248  A    between atoms: _630  and  _631
REMARK  249  A    between atoms: _630  and  _633
REMARK  250  A    between atoms: _633  and  _634
REMARK  251  A    between atoms: _637  and  _639
REMARK  252  A    between atoms: _639  and  _640
REMARK                            x       y       z     vdW  Elec       q    Type
REMARK                         _______ _______ _______ _____ _____    ______ ____
ROOT
ATOM      1  C   ASP A   1      37.389  82.880  -5.237  0.00  0.00    +0.239 C 
ATOM      2  N   ALA A   2      36.206  82.922  -4.611  0.00  0.00    -0.298 N 
ATOM      3  H   ALA A   2      36.023  82.273  -3.819  0.00  0.00    +0.150 HD
ATOM      4  O   ASP A   1      37.701  83.660  -6.168  0.00  0.00    -0.274 OA
ENDROOT
BRANCH   2   5
ATOM      5  CA  ALA A   2      35.163  83.868  -5.024  0.00  0.00    +0.137 C 
ATOM      6  CB  ALA A   2      33.794  83.299  -4.738  0.00  0.00    +0.030 C 
BRANCH   5   7
ATOM      7  C   ALA A   2      35.266  85.282  -4.415  0.00  0.00    +0.227 C 
ATOM      8  O   ALA A   2      34.517  86.180  -4.832  0.00  0.00    -0.286 OA
ENDBRANCH   5   7
ENDBRANCH   2   5
BRANCH   1   9
ATOM      9  CA  ASP A   1      38.354  81.761  -4.837  0.00  0.00    +0.156 C 
BRANCH   9  10
ATOM     10  N   ASP A   1      38.062  81.222  -3.490  0.00  0.00    -0.238 NA
ATOM     11  H   ASP A   1      37.717  80.247  -3.385  0.00  0.00    +0.142 HD
ENDBRANCH   9  10
BRANCH   9  12
ATOM     12  CB  ASP A   1      38.254  80.674  -5.909  0.00  0.00    +0.140 C 
BRANCH  12  13
ATOM     13  CG  ASP A   1      36.911  79.981  -5.871  0.00  0.00    +0.367 C 
ATOM     14  OD2 ASP A   1      36.741  79.064  -5.008  0.00  0.00    -0.246 OA
ATOM     15  OD1 ASP A   1      36.012  80.387  -6.643  0.00  0.00    -0.246 OA
ENDBRANCH  12  13
ENDBRANCH   9  12
ENDBRANCH   1   9
TORSDOF 6
REMARK  Name = ../refined-set-2016/2wm0/2wm0_pocket.pdb
REMARK  252 active torsions:
REMARK  status: ('A' for Active; 'I' for Inactive)
REMARK    1  A    between atoms: _1  and  _3
REMARK    2  A    between atoms: _3  and  _4
REMARK    3  A    between atoms: _3  and  _6
REMARK    4  A    between atoms: _6  and  _7
REMARK    5  A    between atoms: _12  and  _13
REMARK    6  A    between atoms: _15  and  _17
REMARK    7  A    between atoms: _17  and  _18
REMARK    8  A    between atoms: _17  and  _20
REMARK    9  A    between atoms: _23  and  _25
REMARK   10  A    between atoms: _25  and  _26
REMARK   11  A    between atoms: _25  and  _28
REMARK   12  A    between atoms: _28  and  _29
REMARK   13  A    between atoms: _29  and  _30
REMARK   14  A    between atoms: _33  and  _35
REMARK   15  A    between atoms: _35  and  _36
REMARK   16  A    between atoms: _35  and  _38
REMARK   17  A    between atoms: _38  and  _39
REMARK   18  A    between atoms: _49  and  _51
REMARK   19  A    between atoms: _51  and  _52
REMARK   20  A    between atoms: _54  and  _56
REMARK   21  A    between atoms: _56  and  _57
REMARK   22  A    between atoms: _56  and  _59
REMARK   23  A    between atoms: _59  and  _60
REMARK   24  A    between atoms: _65  and  _66
REMARK   25  A    between atoms: _68  and  _70
REMARK   26  A    between atoms: _70  and  _71
REMARK   27  A    between atoms: _73  and  _75
REMARK   28  A    between atoms: _75  and  _76
REMARK   29  A    between atoms: _75  and  _78
REMARK   30  A    between atoms: _78  and  _79
REMARK   31  A    between atoms: _79  and  _80
REMARK   32  A    between atoms: _80  and  _81
REMARK   33  A    between atoms: _90  and  _92
REMARK   34  A    between atoms: _92  and  _93
REMARK   35  A    between atoms: _92  and  _95
REMARK   36  A    between atoms: _95  and  _96
REMARK   37  A    between atoms: _99  and  _101
REMARK   38  A    between atoms: _101  and  _102
REMARK   39  A    between atoms: _104  and  _106
REMARK   40  A    between atoms: _106  and  _107
REMARK   41  A    between atoms: _106  and  _109
REMARK   42  A    between atoms: _109  and  _110
REMARK   43  A    between atoms: _116  and  _118
REMARK   44  A    between atoms: _118  and  _119
REMARK   45  A    between atoms: _118  and  _121
REMARK   46  A    between atoms: _121  and  _122
REMARK   47  A    between atoms: _126  and  _127
REMARK   48  A    between atoms: _132  and  _134
REMARK   49  A    between atoms: _134  and  _135
REMARK   50  A    between atoms: _134  and  _137
REMARK   51  A    between atoms: _137  and  _138
REMARK   52  A    between atoms: _140  and  _142
REMARK   53  A    between atoms: _142  and  _143
REMARK   54  A    between atoms: _142  and  _145
REMARK   55  A    between atoms: _145  and  _146
REMARK   56  A    between atoms: _149  and  _151
REMARK   57  A    between atoms: _151  and  _152
REMARK   58  A    between atoms: _151  and  _154
REMARK   59  A    between atoms: _154  and  _155
REMARK   60  A    between atoms: _155  and  _156
REMARK   61  A    between atoms: _159  and  _161
REMARK   62  A    between atoms: _161  and  _162
REMARK   63  A    between atoms: _161  and  _164
REMARK   64  A    between atoms: _164  and  _165
REMARK   65  A    between atoms: _168  and  _170
REMARK   66  A    between atoms: _170  and  _171
REMARK   67  A    between atoms: _170  and  _173
REMARK   68  A    between atoms: _173  and  _174
REMARK   69  A    between atoms: _174  and  _175
REMARK   70  A    between atoms: _178  and  _180
REMARK   71  A    between atoms: _180  and  _181
REMARK   72  A    between atoms: _183  and  _185
REMARK   73  A    between atoms: _185  and  _186
REMARK   74  A    between atoms: _185  and  _188
REMARK   75  A    between atoms: _188  and  _189
REMARK   76  A    between atoms: _191  and  _193
REMARK   77  A    between atoms: _193  and  _194
REMARK   78  A    between atoms: _193  and  _196
REMARK   79  A    between atoms: _196  and  _197
REMARK   80  A    between atoms: _203  and  _205
REMARK   81  A    between atoms: _205  and  _206
REMARK   82  A    between atoms: _205  and  _208
REMARK   83  A    between atoms: _208  and  _209
REMARK   84  A    between atoms: _214  and  _216
REMARK   85  A    between atoms: _216  and  _217
REMARK   86  A    between atoms: _216  and  _219
REMARK   87  A    between atoms: _219  and  _220
REMARK   88  A    between atoms: _223  and  _225
REMARK   89  A    between atoms: _225  and  _226
REMARK   90  A    between atoms: _225  and  _228
REMARK   91  A    between atoms: _228  and  _229
REMARK   92  A    between atoms: _231  and  _233
REMARK   93  A    between atoms: _233  and  _234
REMARK   94  A    between atoms: _233  and  _236
REMARK   95  A    between atoms: _236  and  _237
REMARK   96  A    between atoms: _240  and  _242
REMARK   97  A    between atoms: _242  and  _243
REMARK   98  A    between atoms: _245  and  _247
REMARK   99  A    between atoms: _247  and  _248
REMARK  100  A    between atoms: _250  and  _252
REMARK  101  A    between atoms: _252  and  _253
REMARK  102  A    between atoms: _252  and  _255
REMARK  103  A    between atoms: _255  and  _256
REMARK  104  A    between atoms: _266  and  _268
REMARK  105  A    between atoms: _268  and  _269
REMARK  106  A    between atoms: _268  and  _271
REMARK  107  A    between atoms: _271  and  _272
REMARK  108  A    between atoms: _275  and  _277
REMARK  109  A    between atoms: _277  and  _278
REMARK  110  A    between atoms: _277  and  _280
REMARK  111  A    between atoms: _280  and  _281
REMARK  112  A    between atoms: _284  and  _286
REMARK  113  A    between atoms: _286  and  _287
REMARK  114  A    between atoms: _286  and  _289
REMARK  115  A    between atoms: _289  and  _290
REMARK  116  A    between atoms: _292  and  _294
REMARK  117  A    between atoms: _294  and  _295
REMARK  118  A    between atoms: _294  and  _297
REMARK  119  A    between atoms: _297  and  _298
REMARK  120  A    between atoms: _301  and  _303
REMARK  121  A    between atoms: _303  and  _304
REMARK  122  A    between atoms: _303  and  _306
REMARK  123  A    between atoms: _306  and  _307
REMARK  124  A    between atoms: _310  and  _312
REMARK  125  A    between atoms: _312  and  _313
REMARK  126  A    between atoms: _312  and  _315
REMARK  127  A    between atoms: _315  and  _316
REMARK  128  A    between atoms: _319  and  _321
REMARK  129  A    between atoms: _321  and  _322
REMARK  130  A    between atoms: _321  and  _324
REMARK  131  A    between atoms: _324  and  _325
REMARK  132  A    between atoms: _335  and  _337
REMARK  133  A    between atoms: _337  and  _338
REMARK  134  A    between atoms: _337  and  _340
REMARK  135  A    between atoms: _340  and  _341
REMARK  136  A    between atoms: _341  and  _342
REMARK  137  A    between atoms: _345  and  _347
REMARK  138  A    between atoms: _347  and  _348
REMARK  139  A    between atoms: _347  and  _350
REMARK  140  A    between atoms: _350  and  _351
REMARK  141  A    between atoms: _357  and  _359
REMARK  142  A    between atoms: _359  and  _360
REMARK  143  A    between atoms: _363  and  _365
REMARK  144  A    between atoms: _365  and  _366
REMARK  145  A    between atoms: _365  and  _368
REMARK  146  A    between atoms: _368  and  _369
REMARK  147  A    between atoms: _371  and  _373
REMARK  148  A    between atoms: _373  and  _374
REMARK  149  A    between atoms: _377  and  _379
REMARK  150  A    between atoms: _379  and  _380
REMARK  151  A    between atoms: _379  and  _382
REMARK  152  A    between atoms: _382  and  _383
REMARK  153  A    between atoms: _386  and  _388
REMARK  154  A    between atoms: _388  and  _389
REMARK  155  A    between atoms: _388  and  _391
REMARK  156  A    between atoms: _391  and  _392
REMARK  157  A    between atoms: _398  and  _400
REMARK  158  A    between atoms: _400  and  _401
REMARK  159  A    between atoms: _400  and  _403
REMARK  160  A    between atoms: _403  and  _404
REMARK  161  A    between atoms: _404  and  _405
REMARK  162  A    between atoms: _407  and  _409
REMARK  163  A    between atoms: _409  and  _410
REMARK  164  A    between atoms: _409  and  _412
REMARK  165  A    between atoms: _412  and  _413
REMARK  166  A    between atoms: _418  and  _419
REMARK  167  A    between atoms: _421  and  _423
REMARK  168  A    between atoms: _423  and  _424
REMARK  169  A    between atoms: _423  and  _426
REMARK  170  A    between atoms: _426  and  _427
REMARK  171  A    between atoms: _430  and  _432
REMARK  172  A    between atoms: _432  and  _433
REMARK  173  A    between atoms: _432  and  _435
REMARK  174  A    between atoms: _435  and  _436
REMARK  175  A    between atoms: _442  and  _444
REMARK  176  A    between atoms: _444  and  _445
REMARK  177  A    between atoms: _444  and  _447
REMARK  178  A    between atoms: _447  and  _448
REMARK  179  A    between atoms: _448  and  _449
REMARK  180  A    between atoms: _454  and  _456
REMARK  181  A    between atoms: _456  and  _457
REMARK  182  A    between atoms: _456  and  _459
REMARK  183  A    between atoms: _459  and  _460
REMARK  184  A    between atoms: _463  and  _465
REMARK  185  A    between atoms: _465  and  _466
REMARK  186  A    between atoms: _469  and  _471
REMARK  187  A    between atoms: _471  and  _472
REMARK  188  A    between atoms: _471  and  _474
REMARK  189  A    between atoms: _474  and  _475
REMARK  190  A    between atoms: _475  and  _476
REMARK  191  A    between atoms: _478  and  _480
REMARK  192  A    between atoms: _480  and  _481
REMARK  193  A    between atoms: _480  and  _483
REMARK  194  A    between atoms: _483  and  _484
REMARK  195  A    between atoms: _489  and  _490
REMARK  196  A    between atoms: _492  and  _494
REMARK  197  A    between atoms: _494  and  _495
REMARK  198  A    between atoms: _497  and  _499
REMARK  199  A    between atoms: _499  and  _500
REMARK  200  A    between atoms: _499  and  _502
REMARK  201  A    between atoms: _502  and  _503
REMARK  202  A    between atoms: _503  and  _504
REMARK  203  A    between atoms: _504  and  _505
REMARK  204  A    between atoms: _514  and  _516
REMARK  205  A    between atoms: _516  and  _517
REMARK  206  A    between atoms: _516  and  _519
REMARK  207  A    between atoms: _519  and  _520
REMARK  208  A    between atoms: _530  and  _532
REMARK  209  A    between atoms: _532  and  _533
REMARK  210  A    between atoms: _532  and  _535
REMARK  211  A    between atoms: _535  and  _536
REMARK  212  A    between atoms: _536  and  _537
REMARK  213  A    between atoms: _540  and  _542
REMARK  214  A    between atoms: _542  and  _543
REMARK  215  A    between atoms: _542  and  _545
REMARK  216  A    between atoms: _545  and  _546
REMARK  217  A    between atoms: _551  and  _553
REMARK  218  A    between atoms: _553  and  _554
REMARK  219  A    between atoms: _556  and  _558
REMARK  220  A    between atoms: _558  and  _559
REMARK  221  A    between atoms: _558  and  _561
REMARK  222  A    between atoms: _561  and  _562
REMARK  223  A    between atoms: _565  and  _567
REMARK  224  A    between atoms: _567  and  _568
REMARK  225  A    between atoms: _567  and  _570
REMARK  226  A    between atoms: _573  and  _575
REMARK  227  A    between atoms: _575  and  _576
REMARK  228  A    between atoms: _575  and  _578
REMARK  229  A    between atoms: _578  and  _579
REMARK  230  A    between atoms: _582  and  _584
REMARK  231  A    between atoms: _584  and  _585
REMARK  232  A    between atoms: _584  and  _587
REMARK  233  A    between atoms: _587  and  _588
REMARK  234  A    between atoms: _594  and  _596
REMARK  235  A    between atoms: _596  and  _597
REMARK  236  A    between atoms: _596  and  _599
REMARK  237  A    between atoms: _599  and  _600
REMARK  238  A    between atoms: _602  and  _604
REMARK  239  A    between atoms: _604  and  _605
REMARK  240  A    between atoms: _604  and  _607
REMARK  241  A    between atoms: _607  and  _608
REMARK  242  A    between atoms: _618  and  _620
REMARK  243  A    between atoms: _620  and  _621
REMARK  244  A    between atoms: _620  and  _623
REMARK  245  A    between atoms: _623  and  _624
REMARK  246  A    between atoms: _624  and  _625
REMARK  247  A    between atoms: _628  and  _630
REMARK  248  A    between atoms: _630  and  _631
REMARK  249  A    between atoms: _630  and  _633
REMARK  250  A    between atoms: _633  and  _634
REMARK  251  A    between atoms: _637  and  _639
REMARK  252  A    between atoms: _639  and  _640
REMARK                            x       y       z     vdW  Elec       q    Type
REMARK                         _______ _______ _______ _____ _____    ______ ____
ROOT
ATOM      1  O   HOH     1      24.841  68.456  -8.134  0.00  0.00    +0.000 OA
ENDROOT
TORSDOF 0
REMARK  Name = ../refined-set-2016/2wm0/2wm0_pocket.pdb
REMARK  252 active torsions:
REMARK  status: ('A' for Active; 'I' for Inactive)
REMARK    1  A    between atoms: _1  and  _3
REMARK    2  A    between atoms: _3  and  _4
REMARK    3  A    between atoms: _3  and  _6
REMARK    4  A    between atoms: _6  and  _7
REMARK    5  A    between atoms: _12  and  _13
REMARK    6  A    between atoms: _15  and  _17
REMARK    7  A    between atoms: _17  and  _18
REMARK    8  A    between atoms: _17  and  _20
REMARK    9  A    between atoms: _23  and  _25
REMARK   10  A    between atoms: _25  and  _26
REMARK   11  A    between atoms: _25  and  _28
REMARK   12  A    between atoms: _28  and  _29
REMARK   13  A    between atoms: _29  and  _30
REMARK   14  A    between atoms: _33  and  _35
REMARK   15  A    between atoms: _35  and  _36
REMARK   16  A    between atoms: _35  and  _38
REMARK   17  A    between atoms: _38  and  _39
REMARK   18  A    between atoms: _49  and  _51
REMARK   19  A    between atoms: _51  and  _52
REMARK   20  A    between atoms: _54  and  _56
REMARK   21  A    between atoms: _56  and  _57
REMARK   22  A    between atoms: _56  and  _59
REMARK   23  A    between atoms: _59  and  _60
REMARK   24  A    between atoms: _65  and  _66
REMARK   25  A    between atoms: _68  and  _70
REMARK   26  A    between atoms: _70  and  _71
REMARK   27  A    between atoms: _73  and  _75
REMARK   28  A    between atoms: _75  and  _76
REMARK   29  A    between atoms: _75  and  _78
REMARK   30  A    between atoms: _78  and  _79
REMARK   31  A    between atoms: _79  and  _80
REMARK   32  A    between atoms: _80  and  _81
REMARK   33  A    between atoms: _90  and  _92
REMARK   34  A    between atoms: _92  and  _93
REMARK   35  A    between atoms: _92  and  _95
REMARK   36  A    between atoms: _95  and  _96
REMARK   37  A    between atoms: _99  and  _101
REMARK   38  A    between atoms: _101  and  _102
REMARK   39  A    between atoms: _104  and  _106
REMARK   40  A    between atoms: _106  and  _107
REMARK   41  A    between atoms: _106  and  _109
REMARK   42  A    between atoms: _109  and  _110
REMARK   43  A    between atoms: _116  and  _118
REMARK   44  A    between atoms: _118  and  _119
REMARK   45  A    between atoms: _118  and  _121
REMARK   46  A    between atoms: _121  and  _122
REMARK   47  A    between atoms: _126  and  _127
REMARK   48  A    between atoms: _132  and  _134
REMARK   49  A    between atoms: _134  and  _135
REMARK   50  A    between atoms: _134  and  _137
REMARK   51  A    between atoms: _137  and  _138
REMARK   52  A    between atoms: _140  and  _142
REMARK   53  A    between atoms: _142  and  _143
REMARK   54  A    between atoms: _142  and  _145
REMARK   55  A    between atoms: _145  and  _146
REMARK   56  A    between atoms: _149  and  _151
REMARK   57  A    between atoms: _151  and  _152
REMARK   58  A    between atoms: _151  and  _154
REMARK   59  A    between atoms: _154  and  _155
REMARK   60  A    between atoms: _155  and  _156
REMARK   61  A    between atoms: _159  and  _161
REMARK   62  A    between atoms: _161  and  _162
REMARK   63  A    between atoms: _161  and  _164
REMARK   64  A    between atoms: _164  and  _165
REMARK   65  A    between atoms: _168  and  _170
REMARK   66  A    between atoms: _170  and  _171
REMARK   67  A    between atoms: _170  and  _173
REMARK   68  A    between atoms: _173  and  _174
REMARK   69  A    between atoms: _174  and  _175
REMARK   70  A    between atoms: _178  and  _180
REMARK   71  A    between atoms: _180  and  _181
REMARK   72  A    between atoms: _183  and  _185
REMARK   73  A    between atoms: _185  and  _186
REMARK   74  A    between atoms: _185  and  _188
REMARK   75  A    between atoms: _188  and  _189
REMARK   76  A    between atoms: _191  and  _193
REMARK   77  A    between atoms: _193  and  _194
REMARK   78  A    between atoms: _193  and  _196
REMARK   79  A    between atoms: _196  and  _197
REMARK   80  A    between atoms: _203  and  _205
REMARK   81  A    between atoms: _205  and  _206
REMARK   82  A    between atoms: _205  and  _208
REMARK   83  A    between atoms: _208  and  _209
REMARK   84  A    between atoms: _214  and  _216
REMARK   85  A    between atoms: _216  and  _217
REMARK   86  A    between atoms: _216  and  _219
REMARK   87  A    between atoms: _219  and  _220
REMARK   88  A    between atoms: _223  and  _225
REMARK   89  A    between atoms: _225  and  _226
REMARK   90  A    between atoms: _225  and  _228
REMARK   91  A    between atoms: _228  and  _229
REMARK   92  A    between atoms: _231  and  _233
REMARK   93  A    between atoms: _233  and  _234
REMARK   94  A    between atoms: _233  and  _236
REMARK   95  A    between atoms: _236  and  _237
REMARK   96  A    between atoms: _240  and  _242
REMARK   97  A    between atoms: _242  and  _243
REMARK   98  A    between atoms: _245  and  _247
REMARK   99  A    between atoms: _247  and  _248
REMARK  100  A    between atoms: _250  and  _252
REMARK  101  A    between atoms: _252  and  _253
REMARK  102  A    between atoms: _252  and  _255
REMARK  103  A    between atoms: _255  and  _256
REMARK  104  A    between atoms: _266  and  _268
REMARK  105  A    between atoms: _268  and  _269
REMARK  106  A    between atoms: _268  and  _271
REMARK  107  A    between atoms: _271  and  _272
REMARK  108  A    between atoms: _275  and  _277
REMARK  109  A    between atoms: _277  and  _278
REMARK  110  A    between atoms: _277  and  _280
REMARK  111  A    between atoms: _280  and  _281
REMARK  112  A    between atoms: _284  and  _286
REMARK  113  A    between atoms: _286  and  _287
REMARK  114  A    between atoms: _286  and  _289
REMARK  115  A    between atoms: _289  and  _290
REMARK  116  A    between atoms: _292  and  _294
REMARK  117  A    between atoms: _294  and  _295
REMARK  118  A    between atoms: _294  and  _297
REMARK  119  A    between atoms: _297  and  _298
REMARK  120  A    between atoms: _301  and  _303
REMARK  121  A    between atoms: _303  and  _304
REMARK  122  A    between atoms: _303  and  _306
REMARK  123  A    between atoms: _306  and  _307
REMARK  124  A    between atoms: _310  and  _312
REMARK  125  A    between atoms: _312  and  _313
REMARK  126  A    between atoms: _312  and  _315
REMARK  127  A    between atoms: _315  and  _316
REMARK  128  A    between atoms: _319  and  _321
REMARK  129  A    between atoms: _321  and  _322
REMARK  130  A    between atoms: _321  and  _324
REMARK  131  A    between atoms: _324  and  _325
REMARK  132  A    between atoms: _335  and  _337
REMARK  133  A    between atoms: _337  and  _338
REMARK  134  A    between atoms: _337  and  _340
REMARK  135  A    between atoms: _340  and  _341
REMARK  136  A    between atoms: _341  and  _342
REMARK  137  A    between atoms: _345  and  _347
REMARK  138  A    between atoms: _347  and  _348
REMARK  139  A    between atoms: _347  and  _350
REMARK  140  A    between atoms: _350  and  _351
REMARK  141  A    between atoms: _357  and  _359
REMARK  142  A    between atoms: _359  and  _360
REMARK  143  A    between atoms: _363  and  _365
REMARK  144  A    between atoms: _365  and  _366
REMARK  145  A    between atoms: _365  and  _368
REMARK  146  A    between atoms: _368  and  _369
REMARK  147  A    between atoms: _371  and  _373
REMARK  148  A    between atoms: _373  and  _374
REMARK  149  A    between atoms: _377  and  _379
REMARK  150  A    between atoms: _379  and  _380
REMARK  151  A    between atoms: _379  and  _382
REMARK  152  A    between atoms: _382  and  _383
REMARK  153  A    between atoms: _386  and  _388
REMARK  154  A    between atoms: _388  and  _389
REMARK  155  A    between atoms: _388  and  _391
REMARK  156  A    between atoms: _391  and  _392
REMARK  157  A    between atoms: _398  and  _400
REMARK  158  A    between atoms: _400  and  _401
REMARK  159  A    between atoms: _400  and  _403
REMARK  160  A    between atoms: _403  and  _404
REMARK  161  A    between atoms: _404  and  _405
REMARK  162  A    between atoms: _407  and  _409
REMARK  163  A    between atoms: _409  and  _410
REMARK  164  A    between atoms: _409  and  _412
REMARK  165  A    between atoms: _412  and  _413
REMARK  166  A    between atoms: _418  and  _419
REMARK  167  A    between atoms: _421  and  _423
REMARK  168  A    between atoms: _423  and  _424
REMARK  169  A    between atoms: _423  and  _426
REMARK  170  A    between atoms: _426  and  _427
REMARK  171  A    between atoms: _430  and  _432
REMARK  172  A    between atoms: _432  and  _433
REMARK  173  A    between atoms: _432  and  _435
REMARK  174  A    between atoms: _435  and  _436
REMARK  175  A    between atoms: _442  and  _444
REMARK  176  A    between atoms: _444  and  _445
REMARK  177  A    between atoms: _444  and  _447
REMARK  178  A    between atoms: _447  and  _448
REMARK  179  A    between atoms: _448  and  _449
REMARK  180  A    between atoms: _454  and  _456
REMARK  181  A    between atoms: _456  and  _457
REMARK  182  A    between atoms: _456  and  _459
REMARK  183  A    between atoms: _459  and  _460
REMARK  184  A    between atoms: _463  and  _465
REMARK  185  A    between atoms: _465  and  _466
REMARK  186  A    between atoms: _469  and  _471
REMARK  187  A    between atoms: _471  and  _472
REMARK  188  A    between atoms: _471  and  _474
REMARK  189  A    between atoms: _474  and  _475
REMARK  190  A    between atoms: _475  and  _476
REMARK  191  A    between atoms: _478  and  _480
REMARK  192  A    between atoms: _480  and  _481
REMARK  193  A    between atoms: _480  and  _483
REMARK  194  A    between atoms: _483  and  _484
REMARK  195  A    between atoms: _489  and  _490
REMARK  196  A    between atoms: _492  and  _494
REMARK  197  A    between atoms: _494  and  _495
REMARK  198  A    between atoms: _497  and  _499
REMARK  199  A    between atoms: _499  and  _500
REMARK  200  A    between atoms: _499  and  _502
REMARK  201  A    between atoms: _502  and  _503
REMARK  202  A    between atoms: _503  and  _504
REMARK  203  A    between atoms: _504  and  _505
REMARK  204  A    between atoms: _514  and  _516
REMARK  205  A    between atoms: _516  and  _517
REMARK  206  A    between atoms: _516  and  _519
REMARK  207  A    between atoms: _519  and  _520
REMARK  208  A    between atoms: _530  and  _532
REMARK  209  A    between atoms: _532  and  _533
REMARK  210  A    between atoms: _532  and  _535
REMARK  211  A    between atoms: _535  and  _536
REMARK  212  A    between atoms: _536  and  _537
REMARK  213  A    between atoms: _540  and  _542
REMARK  214  A    between atoms: _542  and  _543
REMARK  215  A    between atoms: _542  and  _545
REMARK  216  A    between atoms: _545  and  _546
REMARK  217  A    between atoms: _551  and  _553
REMARK  218  A    between atoms: _553  and  _554
REMARK  219  A    between atoms: _556  and  _558
REMARK  220  A    between atoms: _558  and  _559
REMARK  221  A    between atoms: _558  and  _561
REMARK  222  A    between atoms: _561  and  _562
REMARK  223  A    between atoms: _565  and  _567
REMARK  224  A    between atoms: _567  and  _568
REMARK  225  A    between atoms: _567  and  _570
REMARK  226  A    between atoms: _573  and  _575
REMARK  227  A    between atoms: _575  and  _576
REMARK  228  A    between atoms: _575  and  _578
REMARK  229  A    between atoms: _578  and  _579
REMARK  230  A    between atoms: _582  and  _584
REMARK  231  A    between atoms: _584  and  _585
REMARK  232  A    between atoms: _584  and  _587
REMARK  233  A    between atoms: _587  and  _588
REMARK  234  A    between atoms: _594  and  _596
REMARK  235  A    between atoms: _596  and  _597
REMARK  236  A    between atoms: _596  and  _599
REMARK  237  A    between atoms: _599  and  _600
REMARK  238  A    between atoms: _602  and  _604
REMARK  239  A    between atoms: _604  and  _605
REMARK  240  A    between atoms: _604  and  _607
REMARK  241  A    between atoms: _607  and  _608
REMARK  242  A    between atoms: _618  and  _620
REMARK  243  A    between atoms: _620  and  _621
REMARK  244  A    between atoms: _620  and  _623
REMARK  245  A    between atoms: _623  and  _624
REMARK  246  A    between atoms: _624  and  _625
REMARK  247  A    between atoms: _628  and  _630
REMARK  248  A    between atoms: _630  and  _631
REMARK  249  A    between atoms: _630  and  _633
REMARK  250  A    between atoms: _633  and  _634
REMARK  251  A    between atoms: _637  and  _639
REMARK  252  A    between atoms: _639  and  _640
REMARK                            x       y       z     vdW  Elec       q    Type
REMARK                         _______ _______ _______ _____ _____    ______ ____
ROOT
ATOM      1  O   HOH     1      35.269  65.145 -11.743  0.00  0.00    +0.000 OA
ENDROOT
TORSDOF 0
REMARK  Name = ../refined-set-2016/2wm0/2wm0_pocket.pdb
REMARK  252 active torsions:
REMARK  status: ('A' for Active; 'I' for Inactive)
REMARK    1  A    between atoms: _1  and  _3
REMARK    2  A    between atoms: _3  and  _4
REMARK    3  A    between atoms: _3  and  _6
REMARK    4  A    between atoms: _6  and  _7
REMARK    5  A    between atoms: _12  and  _13
REMARK    6  A    between atoms: _15  and  _17
REMARK    7  A    between atoms: _17  and  _18
REMARK    8  A    between atoms: _17  and  _20
REMARK    9  A    between atoms: _23  and  _25
REMARK   10  A    between atoms: _25  and  _26
REMARK   11  A    between atoms: _25  and  _28
REMARK   12  A    between atoms: _28  and  _29
REMARK   13  A    between atoms: _29  and  _30
REMARK   14  A    between atoms: _33  and  _35
REMARK   15  A    between atoms: _35  and  _36
REMARK   16  A    between atoms: _35  and  _38
REMARK   17  A    between atoms: _38  and  _39
REMARK   18  A    between atoms: _49  and  _51
REMARK   19  A    between atoms: _51  and  _52
REMARK   20  A    between atoms: _54  and  _56
REMARK   21  A    between atoms: _56  and  _57
REMARK   22  A    between atoms: _56  and  _59
REMARK   23  A    between atoms: _59  and  _60
REMARK   24  A    between atoms: _65  and  _66
REMARK   25  A    between atoms: _68  and  _70
REMARK   26  A    between atoms: _70  and  _71
REMARK   27  A    between atoms: _73  and  _75
REMARK   28  A    between atoms: _75  and  _76
REMARK   29  A    between atoms: _75  and  _78
REMARK   30  A    between atoms: _78  and  _79
REMARK   31  A    between atoms: _79  and  _80
REMARK   32  A    between atoms: _80  and  _81
REMARK   33  A    between atoms: _90  and  _92
REMARK   34  A    between atoms: _92  and  _93
REMARK   35  A    between atoms: _92  and  _95
REMARK   36  A    between atoms: _95  and  _96
REMARK   37  A    between atoms: _99  and  _101
REMARK   38  A    between atoms: _101  and  _102
REMARK   39  A    between atoms: _104  and  _106
REMARK   40  A    between atoms: _106  and  _107
REMARK   41  A    between atoms: _106  and  _109
REMARK   42  A    between atoms: _109  and  _110
REMARK   43  A    between atoms: _116  and  _118
REMARK   44  A    between atoms: _118  and  _119
REMARK   45  A    between atoms: _118  and  _121
REMARK   46  A    between atoms: _121  and  _122
REMARK   47  A    between atoms: _126  and  _127
REMARK   48  A    between atoms: _132  and  _134
REMARK   49  A    between atoms: _134  and  _135
REMARK   50  A    between atoms: _134  and  _137
REMARK   51  A    between atoms: _137  and  _138
REMARK   52  A    between atoms: _140  and  _142
REMARK   53  A    between atoms: _142  and  _143
REMARK   54  A    between atoms: _142  and  _145
REMARK   55  A    between atoms: _145  and  _146
REMARK   56  A    between atoms: _149  and  _151
REMARK   57  A    between atoms: _151  and  _152
REMARK   58  A    between atoms: _151  and  _154
REMARK   59  A    between atoms: _154  and  _155
REMARK   60  A    between atoms: _155  and  _156
REMARK   61  A    between atoms: _159  and  _161
REMARK   62  A    between atoms: _161  and  _162
REMARK   63  A    between atoms: _161  and  _164
REMARK   64  A    between atoms: _164  and  _165
REMARK   65  A    between atoms: _168  and  _170
REMARK   66  A    between atoms: _170  and  _171
REMARK   67  A    between atoms: _170  and  _173
REMARK   68  A    between atoms: _173  and  _174
REMARK   69  A    between atoms: _174  and  _175
REMARK   70  A    between atoms: _178  and  _180
REMARK   71  A    between atoms: _180  and  _181
REMARK   72  A    between atoms: _183  and  _185
REMARK   73  A    between atoms: _185  and  _186
REMARK   74  A    between atoms: _185  and  _188
REMARK   75  A    between atoms: _188  and  _189
REMARK   76  A    between atoms: _191  and  _193
REMARK   77  A    between atoms: _193  and  _194
REMARK   78  A    between atoms: _193  and  _196
REMARK   79  A    between atoms: _196  and  _197
REMARK   80  A    between atoms: _203  and  _205
REMARK   81  A    between atoms: _205  and  _206
REMARK   82  A    between atoms: _205  and  _208
REMARK   83  A    between atoms: _208  and  _209
REMARK   84  A    between atoms: _214  and  _216
REMARK   85  A    between atoms: _216  and  _217
REMARK   86  A    between atoms: _216  and  _219
REMARK   87  A    between atoms: _219  and  _220
REMARK   88  A    between atoms: _223  and  _225
REMARK   89  A    between atoms: _225  and  _226
REMARK   90  A    between atoms: _225  and  _228
REMARK   91  A    between atoms: _228  and  _229
REMARK   92  A    between atoms: _231  and  _233
REMARK   93  A    between atoms: _233  and  _234
REMARK   94  A    between atoms: _233  and  _236
REMARK   95  A    between atoms: _236  and  _237
REMARK   96  A    between atoms: _240  and  _242
REMARK   97  A    between atoms: _242  and  _243
REMARK   98  A    between atoms: _245  and  _247
REMARK   99  A    between atoms: _247  and  _248
REMARK  100  A    between atoms: _250  and  _252
REMARK  101  A    between atoms: _252  and  _253
REMARK  102  A    between atoms: _252  and  _255
REMARK  103  A    between atoms: _255  and  _256
REMARK  104  A    between atoms: _266  and  _268
REMARK  105  A    between atoms: _268  and  _269
REMARK  106  A    between atoms: _268  and  _271
REMARK  107  A    between atoms: _271  and  _272
REMARK  108  A    between atoms: _275  and  _277
REMARK  109  A    between atoms: _277  and  _278
REMARK  110  A    between atoms: _277  and  _280
REMARK  111  A    between atoms: _280  and  _281
REMARK  112  A    between atoms: _284  and  _286
REMARK  113  A    between atoms: _286  and  _287
REMARK  114  A    between atoms: _286  and  _289
REMARK  115  A    between atoms: _289  and  _290
REMARK  116  A    between atoms: _292  and  _294
REMARK  117  A    between atoms: _294  and  _295
REMARK  118  A    between atoms: _294  and  _297
REMARK  119  A    between atoms: _297  and  _298
REMARK  120  A    between atoms: _301  and  _303
REMARK  121  A    between atoms: _303  and  _304
REMARK  122  A    between atoms: _303  and  _306
REMARK  123  A    between atoms: _306  and  _307
REMARK  124  A    between atoms: _310  and  _312
REMARK  125  A    between atoms: _312  and  _313
REMARK  126  A    between atoms: _312  and  _315
REMARK  127  A    between atoms: _315  and  _316
REMARK  128  A    between atoms: _319  and  _321
REMARK  129  A    between atoms: _321  and  _322
REMARK  130  A    between atoms: _321  and  _324
REMARK  131  A    between atoms: _324  and  _325
REMARK  132  A    between atoms: _335  and  _337
REMARK  133  A    between atoms: _337  and  _338
REMARK  134  A    between atoms: _337  and  _340
REMARK  135  A    between atoms: _340  and  _341
REMARK  136  A    between atoms: _341  and  _342
REMARK  137  A    between atoms: _345  and  _347
REMARK  138  A    between atoms: _347  and  _348
REMARK  139  A    between atoms: _347  and  _350
REMARK  140  A    between atoms: _350  and  _351
REMARK  141  A    between atoms: _357  and  _359
REMARK  142  A    between atoms: _359  and  _360
REMARK  143  A    between atoms: _363  and  _365
REMARK  144  A    between atoms: _365  and  _366
REMARK  145  A    between atoms: _365  and  _368
REMARK  146  A    between atoms: _368  and  _369
REMARK  147  A    between atoms: _371  and  _373
REMARK  148  A    between atoms: _373  and  _374
REMARK  149  A    between atoms: _377  and  _379
REMARK  150  A    between atoms: _379  and  _380
REMARK  151  A    between atoms: _379  and  _382
REMARK  152  A    between atoms: _382  and  _383
REMARK  153  A    between atoms: _386  and  _388
REMARK  154  A    between atoms: _388  and  _389
REMARK  155  A    between atoms: _388  and  _391
REMARK  156  A    between atoms: _391  and  _392
REMARK  157  A    between atoms: _398  and  _400
REMARK  158  A    between atoms: _400  and  _401
REMARK  159  A    between atoms: _400  and  _403
REMARK  160  A    between atoms: _403  and  _404
REMARK  161  A    between atoms: _404  and  _405
REMARK  162  A    between atoms: _407  and  _409
REMARK  163  A    between atoms: _409  and  _410
REMARK  164  A    between atoms: _409  and  _412
REMARK  165  A    between atoms: _412  and  _413
REMARK  166  A    between atoms: _418  and  _419
REMARK  167  A    between atoms: _421  and  _423
REMARK  168  A    between atoms: _423  and  _424
REMARK  169  A    between atoms: _423  and  _426
REMARK  170  A    between atoms: _426  and  _427
REMARK  171  A    between atoms: _430  and  _432
REMARK  172  A    between atoms: _432  and  _433
REMARK  173  A    between atoms: _432  and  _435
REMARK  174  A    between atoms: _435  and  _436
REMARK  175  A    between atoms: _442  and  _444
REMARK  176  A    between atoms: _444  and  _445
REMARK  177  A    between atoms: _444  and  _447
REMARK  178  A    between atoms: _447  and  _448
REMARK  179  A    between atoms: _448  and  _449
REMARK  180  A    between atoms: _454  and  _456
REMARK  181  A    between atoms: _456  and  _457
REMARK  182  A    between atoms: _456  and  _459
REMARK  183  A    between atoms: _459  and  _460
REMARK  184  A    between atoms: _463  and  _465
REMARK  185  A    between atoms: _465  and  _466
REMARK  186  A    between atoms: _469  and  _471
REMARK  187  A    between atoms: _471  and  _472
REMARK  188  A    between atoms: _471  and  _474
REMARK  189  A    between atoms: _474  and  _475
REMARK  190  A    between atoms: _475  and  _476
REMARK  191  A    between atoms: _478  and  _480
REMARK  192  A    between atoms: _480  and  _481
REMARK  193  A    between atoms: _480  and  _483
REMARK  194  A    between atoms: _483  and  _484
REMARK  195  A    between atoms: _489  and  _490
REMARK  196  A    between atoms: _492  and  _494
REMARK  197  A    between atoms: _494  and  _495
REMARK  198  A    between atoms: _497  and  _499
REMARK  199  A    between atoms: _499  and  _500
REMARK  200  A    between atoms: _499  and  _502
REMARK  201  A    between atoms: _502  and  _503
REMARK  202  A    between atoms: _503  and  _504
REMARK  203  A    between atoms: _504  and  _505
REMARK  204  A    between atoms: _514  and  _516
REMARK  205  A    between atoms: _516  and  _517
REMARK  206  A    between atoms: _516  and  _519
REMARK  207  A    between atoms: _519  and  _520
REMARK  208  A    between atoms: _530  and  _532
REMARK  209  A    between atoms: _532  and  _533
REMARK  210  A    between atoms: _532  and  _535
REMARK  211  A    between atoms: _535  and  _536
REMARK  212  A    between atoms: _536  and  _537
REMARK  213  A    between atoms: _540  and  _542
REMARK  214  A    between atoms: _542  and  _543
REMARK  215  A    between atoms: _542  and  _545
REMARK  216  A    between atoms: _545  and  _546
REMARK  217  A    between atoms: _551  and  _553
REMARK  218  A    between atoms: _553  and  _554
REMARK  219  A    between atoms: _556  and  _558
REMARK  220  A    between atoms: _558  and  _559
REMARK  221  A    between atoms: _558  and  _561
REMARK  222  A    between atoms: _561  and  _562
REMARK  223  A    between atoms: _565  and  _567
REMARK  224  A    between atoms: _567  and  _568
REMARK  225  A    between atoms: _567  and  _570
REMARK  226  A    between atoms: _573  and  _575
REMARK  227  A    between atoms: _575  and  _576
REMARK  228  A    between atoms: _575  and  _578
REMARK  229  A    between atoms: _578  and  _579
REMARK  230  A    between atoms: _582  and  _584
REMARK  231  A    between atoms: _584  and  _585
REMARK  232  A    between atoms: _584  and  _587
REMARK  233  A    between atoms: _587  and  _588
REMARK  234  A    between atoms: _594  and  _596
REMARK  235  A    between atoms: _596  and  _597
REMARK  236  A    between atoms: _596  and  _599
REMARK  237  A    between atoms: _599  and  _600
REMARK  238  A    between atoms: _602  and  _604
REMARK  239  A    between atoms: _604  and  _605
REMARK  240  A    between atoms: _604  and  _607
REMARK  241  A    between atoms: _607  and  _608
REMARK  242  A    between atoms: _618  and  _620
REMARK  243  A    between atoms: _620  and  _621
REMARK  244  A    between atoms: _620  and  _623
REMARK  245  A    between atoms: _623  and  _624
REMARK  246  A    between atoms: _624  and  _625
REMARK  247  A    between atoms: _628  and  _630
REMARK  248  A    between atoms: _630  and  _631
REMARK  249  A    between atoms: _630  and  _633
REMARK  250  A    between atoms: _633  and  _634
REMARK  251  A    between atoms: _637  and  _639
REMARK  252  A    between atoms: _639  and  _640
REMARK                            x       y       z     vdW  Elec       q    Type
REMARK                         _______ _______ _______ _____ _____    ______ ____
ROOT
ATOM      1  O   HOH     1      36.727  69.666 -12.626  0.00  0.00    +0.000 OA
ENDROOT
TORSDOF 0
REMARK  Name = ../refined-set-2016/2wm0/2wm0_pocket.pdb
REMARK  252 active torsions:
REMARK  status: ('A' for Active; 'I' for Inactive)
REMARK    1  A    between atoms: _1  and  _3
REMARK    2  A    between atoms: _3  and  _4
REMARK    3  A    between atoms: _3  and  _6
REMARK    4  A    between atoms: _6  and  _7
REMARK    5  A    between atoms: _12  and  _13
REMARK    6  A    between atoms: _15  and  _17
REMARK    7  A    between atoms: _17  and  _18
REMARK    8  A    between atoms: _17  and  _20
REMARK    9  A    between atoms: _23  and  _25
REMARK   10  A    between atoms: _25  and  _26
REMARK   11  A    between atoms: _25  and  _28
REMARK   12  A    between atoms: _28  and  _29
REMARK   13  A    between atoms: _29  and  _30
REMARK   14  A    between atoms: _33  and  _35
REMARK   15  A    between atoms: _35  and  _36
REMARK   16  A    between atoms: _35  and  _38
REMARK   17  A    between atoms: _38  and  _39
REMARK   18  A    between atoms: _49  and  _51
REMARK   19  A    between atoms: _51  and  _52
REMARK   20  A    between atoms: _54  and  _56
REMARK   21  A    between atoms: _56  and  _57
REMARK   22  A    between atoms: _56  and  _59
REMARK   23  A    between atoms: _59  and  _60
REMARK   24  A    between atoms: _65  and  _66
REMARK   25  A    between atoms: _68  and  _70
REMARK   26  A    between atoms: _70  and  _71
REMARK   27  A    between atoms: _73  and  _75
REMARK   28  A    between atoms: _75  and  _76
REMARK   29  A    between atoms: _75  and  _78
REMARK   30  A    between atoms: _78  and  _79
REMARK   31  A    between atoms: _79  and  _80
REMARK   32  A    between atoms: _80  and  _81
REMARK   33  A    between atoms: _90  and  _92
REMARK   34  A    between atoms: _92  and  _93
REMARK   35  A    between atoms: _92  and  _95
REMARK   36  A    between atoms: _95  and  _96
REMARK   37  A    between atoms: _99  and  _101
REMARK   38  A    between atoms: _101  and  _102
REMARK   39  A    between atoms: _104  and  _106
REMARK   40  A    between atoms: _106  and  _107
REMARK   41  A    between atoms: _106  and  _109
REMARK   42  A    between atoms: _109  and  _110
REMARK   43  A    between atoms: _116  and  _118
REMARK   44  A    between atoms: _118  and  _119
REMARK   45  A    between atoms: _118  and  _121
REMARK   46  A    between atoms: _121  and  _122
REMARK   47  A    between atoms: _126  and  _127
REMARK   48  A    between atoms: _132  and  _134
REMARK   49  A    between atoms: _134  and  _135
REMARK   50  A    between atoms: _134  and  _137
REMARK   51  A    between atoms: _137  and  _138
REMARK   52  A    between atoms: _140  and  _142
REMARK   53  A    between atoms: _142  and  _143
REMARK   54  A    between atoms: _142  and  _145
REMARK   55  A    between atoms: _145  and  _146
REMARK   56  A    between atoms: _149  and  _151
REMARK   57  A    between atoms: _151  and  _152
REMARK   58  A    between atoms: _151  and  _154
REMARK   59  A    between atoms: _154  and  _155
REMARK   60  A    between atoms: _155  and  _156
REMARK   61  A    between atoms: _159  and  _161
REMARK   62  A    between atoms: _161  and  _162
REMARK   63  A    between atoms: _161  and  _164
REMARK   64  A    between atoms: _164  and  _165
REMARK   65  A    between atoms: _168  and  _170
REMARK   66  A    between atoms: _170  and  _171
REMARK   67  A    between atoms: _170  and  _173
REMARK   68  A    between atoms: _173  and  _174
REMARK   69  A    between atoms: _174  and  _175
REMARK   70  A    between atoms: _178  and  _180
REMARK   71  A    between atoms: _180  and  _181
REMARK   72  A    between atoms: _183  and  _185
REMARK   73  A    between atoms: _185  and  _186
REMARK   74  A    between atoms: _185  and  _188
REMARK   75  A    between atoms: _188  and  _189
REMARK   76  A    between atoms: _191  and  _193
REMARK   77  A    between atoms: _193  and  _194
REMARK   78  A    between atoms: _193  and  _196
REMARK   79  A    between atoms: _196  and  _197
REMARK   80  A    between atoms: _203  and  _205
REMARK   81  A    between atoms: _205  and  _206
REMARK   82  A    between atoms: _205  and  _208
REMARK   83  A    between atoms: _208  and  _209
REMARK   84  A    between atoms: _214  and  _216
REMARK   85  A    between atoms: _216  and  _217
REMARK   86  A    between atoms: _216  and  _219
REMARK   87  A    between atoms: _219  and  _220
REMARK   88  A    between atoms: _223  and  _225
REMARK   89  A    between atoms: _225  and  _226
REMARK   90  A    between atoms: _225  and  _228
REMARK   91  A    between atoms: _228  and  _229
REMARK   92  A    between atoms: _231  and  _233
REMARK   93  A    between atoms: _233  and  _234
REMARK   94  A    between atoms: _233  and  _236
REMARK   95  A    between atoms: _236  and  _237
REMARK   96  A    between atoms: _240  and  _242
REMARK   97  A    between atoms: _242  and  _243
REMARK   98  A    between atoms: _245  and  _247
REMARK   99  A    between atoms: _247  and  _248
REMARK  100  A    between atoms: _250  and  _252
REMARK  101  A    between atoms: _252  and  _253
REMARK  102  A    between atoms: _252  and  _255
REMARK  103  A    between atoms: _255  and  _256
REMARK  104  A    between atoms: _266  and  _268
REMARK  105  A    between atoms: _268  and  _269
REMARK  106  A    between atoms: _268  and  _271
REMARK  107  A    between atoms: _271  and  _272
REMARK  108  A    between atoms: _275  and  _277
REMARK  109  A    between atoms: _277  and  _278
REMARK  110  A    between atoms: _277  and  _280
REMARK  111  A    between atoms: _280  and  _281
REMARK  112  A    between atoms: _284  and  _286
REMARK  113  A    between atoms: _286  and  _287
REMARK  114  A    between atoms: _286  and  _289
REMARK  115  A    between atoms: _289  and  _290
REMARK  116  A    between atoms: _292  and  _294
REMARK  117  A    between atoms: _294  and  _295
REMARK  118  A    between atoms: _294  and  _297
REMARK  119  A    between atoms: _297  and  _298
REMARK  120  A    between atoms: _301  and  _303
REMARK  121  A    between atoms: _303  and  _304
REMARK  122  A    between atoms: _303  and  _306
REMARK  123  A    between atoms: _306  and  _307
REMARK  124  A    between atoms: _310  and  _312
REMARK  125  A    between atoms: _312  and  _313
REMARK  126  A    between atoms: _312  and  _315
REMARK  127  A    between atoms: _315  and  _316
REMARK  128  A    between atoms: _319  and  _321
REMARK  129  A    between atoms: _321  and  _322
REMARK  130  A    between atoms: _321  and  _324
REMARK  131  A    between atoms: _324  and  _325
REMARK  132  A    between atoms: _335  and  _337
REMARK  133  A    between atoms: _337  and  _338
REMARK  134  A    between atoms: _337  and  _340
REMARK  135  A    between atoms: _340  and  _341
REMARK  136  A    between atoms: _341  and  _342
REMARK  137  A    between atoms: _345  and  _347
REMARK  138  A    between atoms: _347  and  _348
REMARK  139  A    between atoms: _347  and  _350
REMARK  140  A    between atoms: _350  and  _351
REMARK  141  A    between atoms: _357  and  _359
REMARK  142  A    between atoms: _359  and  _360
REMARK  143  A    between atoms: _363  and  _365
REMARK  144  A    between atoms: _365  and  _366
REMARK  145  A    between atoms: _365  and  _368
REMARK  146  A    between atoms: _368  and  _369
REMARK  147  A    between atoms: _371  and  _373
REMARK  148  A    between atoms: _373  and  _374
REMARK  149  A    between atoms: _377  and  _379
REMARK  150  A    between atoms: _379  and  _380
REMARK  151  A    between atoms: _379  and  _382
REMARK  152  A    between atoms: _382  and  _383
REMARK  153  A    between atoms: _386  and  _388
REMARK  154  A    between atoms: _388  and  _389
REMARK  155  A    between atoms: _388  and  _391
REMARK  156  A    between atoms: _391  and  _392
REMARK  157  A    between atoms: _398  and  _400
REMARK  158  A    between atoms: _400  and  _401
REMARK  159  A    between atoms: _400  and  _403
REMARK  160  A    between atoms: _403  and  _404
REMARK  161  A    between atoms: _404  and  _405
REMARK  162  A    between atoms: _407  and  _409
REMARK  163  A    between atoms: _409  and  _410
REMARK  164  A    between atoms: _409  and  _412
REMARK  165  A    between atoms: _412  and  _413
REMARK  166  A    between atoms: _418  and  _419
REMARK  167  A    between atoms: _421  and  _423
REMARK  168  A    between atoms: _423  and  _424
REMARK  169  A    between atoms: _423  and  _426
REMARK  170  A    between atoms: _426  and  _427
REMARK  171  A    between atoms: _430  and  _432
REMARK  172  A    between atoms: _432  and  _433
REMARK  173  A    between atoms: _432  and  _435
REMARK  174  A    between atoms: _435  and  _436
REMARK  175  A    between atoms: _442  and  _444
REMARK  176  A    between atoms: _444  and  _445
REMARK  177  A    between atoms: _444  and  _447
REMARK  178  A    between atoms: _447  and  _448
REMARK  179  A    between atoms: _448  and  _449
REMARK  180  A    between atoms: _454  and  _456
REMARK  181  A    between atoms: _456  and  _457
REMARK  182  A    between atoms: _456  and  _459
REMARK  183  A    between atoms: _459  and  _460
REMARK  184  A    between atoms: _463  and  _465
REMARK  185  A    between atoms: _465  and  _466
REMARK  186  A    between atoms: _469  and  _471
REMARK  187  A    between atoms: _471  and  _472
REMARK  188  A    between atoms: _471  and  _474
REMARK  189  A    between atoms: _474  and  _475
REMARK  190  A    between atoms: _475  and  _476
REMARK  191  A    between atoms: _478  and  _480
REMARK  192  A    between atoms: _480  and  _481
REMARK  193  A    between atoms: _480  and  _483
REMARK  194  A    between atoms: _483  and  _484
REMARK  195  A    between atoms: _489  and  _490
REMARK  196  A    between atoms: _492  and  _494
REMARK  197  A    between atoms: _494  and  _495
REMARK  198  A    between atoms: _497  and  _499
REMARK  199  A    between atoms: _499  and  _500
REMARK  200  A    between atoms: _499  and  _502
REMARK  201  A    between atoms: _502  and  _503
REMARK  202  A    between atoms: _503  and  _504
REMARK  203  A    between atoms: _504  and  _505
REMARK  204  A    between atoms: _514  and  _516
REMARK  205  A    between atoms: _516  and  _517
REMARK  206  A    between atoms: _516  and  _519
REMARK  207  A    between atoms: _519  and  _520
REMARK  208  A    between atoms: _530  and  _532
REMARK  209  A    between atoms: _532  and  _533
REMARK  210  A    between atoms: _532  and  _535
REMARK  211  A    between atoms: _535  and  _536
REMARK  212  A    between atoms: _536  and  _537
REMARK  213  A    between atoms: _540  and  _542
REMARK  214  A    between atoms: _542  and  _543
REMARK  215  A    between atoms: _542  and  _545
REMARK  216  A    between atoms: _545  and  _546
REMARK  217  A    between atoms: _551  and  _553
REMARK  218  A    between atoms: _553  and  _554
REMARK  219  A    between atoms: _556  and  _558
REMARK  220  A    between atoms: _558  and  _559
REMARK  221  A    between atoms: _558  and  _561
REMARK  222  A    between atoms: _561  and  _562
REMARK  223  A    between atoms: _565  and  _567
REMARK  224  A    between atoms: _567  and  _568
REMARK  225  A    between atoms: _567  and  _570
REMARK  226  A    between atoms: _573  and  _575
REMARK  227  A    between atoms: _575  and  _576
REMARK  228  A    between atoms: _575  and  _578
REMARK  229  A    between atoms: _578  and  _579
REMARK  230  A    between atoms: _582  and  _584
REMARK  231  A    between atoms: _584  and  _585
REMARK  232  A    between atoms: _584  and  _587
REMARK  233  A    between atoms: _587  and  _588
REMARK  234  A    between atoms: _594  and  _596
REMARK  235  A    between atoms: _596  and  _597
REMARK  236  A    between atoms: _596  and  _599
REMARK  237  A    between atoms: _599  and  _600
REMARK  238  A    between atoms: _602  and  _604
REMARK  239  A    between atoms: _604  and  _605
REMARK  240  A    between atoms: _604  and  _607
REMARK  241  A    between atoms: _607  and  _608
REMARK  242  A    between atoms: _618  and  _620
REMARK  243  A    between atoms: _620  and  _621
REMARK  244  A    between atoms: _620  and  _623
REMARK  245  A    between atoms: _623  and  _624
REMARK  246  A    between atoms: _624  and  _625
REMARK  247  A    between atoms: _628  and  _630
REMARK  248  A    between atoms: _630  and  _631
REMARK  249  A    between atoms: _630  and  _633
REMARK  250  A    between atoms: _633  and  _634
REMARK  251  A    between atoms: _637  and  _639
REMARK  252  A    between atoms: _639  and  _640
REMARK                            x       y       z     vdW  Elec       q    Type
REMARK                         _______ _______ _______ _____ _____    ______ ____
ROOT
ATOM      1  O   HOH     1      37.653  67.494  -7.416  0.00  0.00    +0.000 OA
ENDROOT
TORSDOF 0
REMARK  Name = ../refined-set-2016/2wm0/2wm0_pocket.pdb
REMARK  252 active torsions:
REMARK  status: ('A' for Active; 'I' for Inactive)
REMARK    1  A    between atoms: _1  and  _3
REMARK    2  A    between atoms: _3  and  _4
REMARK    3  A    between atoms: _3  and  _6
REMARK    4  A    between atoms: _6  and  _7
REMARK    5  A    between atoms: _12  and  _13
REMARK    6  A    between atoms: _15  and  _17
REMARK    7  A    between atoms: _17  and  _18
REMARK    8  A    between atoms: _17  and  _20
REMARK    9  A    between atoms: _23  and  _25
REMARK   10  A    between atoms: _25  and  _26
REMARK   11  A    between atoms: _25  and  _28
REMARK   12  A    between atoms: _28  and  _29
REMARK   13  A    between atoms: _29  and  _30
REMARK   14  A    between atoms: _33  and  _35
REMARK   15  A    between atoms: _35  and  _36
REMARK   16  A    between atoms: _35  and  _38
REMARK   17  A    between atoms: _38  and  _39
REMARK   18  A    between atoms: _49  and  _51
REMARK   19  A    between atoms: _51  and  _52
REMARK   20  A    between atoms: _54  and  _56
REMARK   21  A    between atoms: _56  and  _57
REMARK   22  A    between atoms: _56  and  _59
REMARK   23  A    between atoms: _59  and  _60
REMARK   24  A    between atoms: _65  and  _66
REMARK   25  A    between atoms: _68  and  _70
REMARK   26  A    between atoms: _70  and  _71
REMARK   27  A    between atoms: _73  and  _75
REMARK   28  A    between atoms: _75  and  _76
REMARK   29  A    between atoms: _75  and  _78
REMARK   30  A    between atoms: _78  and  _79
REMARK   31  A    between atoms: _79  and  _80
REMARK   32  A    between atoms: _80  and  _81
REMARK   33  A    between atoms: _90  and  _92
REMARK   34  A    between atoms: _92  and  _93
REMARK   35  A    between atoms: _92  and  _95
REMARK   36  A    between atoms: _95  and  _96
REMARK   37  A    between atoms: _99  and  _101
REMARK   38  A    between atoms: _101  and  _102
REMARK   39  A    between atoms: _104  and  _106
REMARK   40  A    between atoms: _106  and  _107
REMARK   41  A    between atoms: _106  and  _109
REMARK   42  A    between atoms: _109  and  _110
REMARK   43  A    between atoms: _116  and  _118
REMARK   44  A    between atoms: _118  and  _119
REMARK   45  A    between atoms: _118  and  _121
REMARK   46  A    between atoms: _121  and  _122
REMARK   47  A    between atoms: _126  and  _127
REMARK   48  A    between atoms: _132  and  _134
REMARK   49  A    between atoms: _134  and  _135
REMARK   50  A    between atoms: _134  and  _137
REMARK   51  A    between atoms: _137  and  _138
REMARK   52  A    between atoms: _140  and  _142
REMARK   53  A    between atoms: _142  and  _143
REMARK   54  A    between atoms: _142  and  _145
REMARK   55  A    between atoms: _145  and  _146
REMARK   56  A    between atoms: _149  and  _151
REMARK   57  A    between atoms: _151  and  _152
REMARK   58  A    between atoms: _151  and  _154
REMARK   59  A    between atoms: _154  and  _155
REMARK   60  A    between atoms: _155  and  _156
REMARK   61  A    between atoms: _159  and  _161
REMARK   62  A    between atoms: _161  and  _162
REMARK   63  A    between atoms: _161  and  _164
REMARK   64  A    between atoms: _164  and  _165
REMARK   65  A    between atoms: _168  and  _170
REMARK   66  A    between atoms: _170  and  _171
REMARK   67  A    between atoms: _170  and  _173
REMARK   68  A    between atoms: _173  and  _174
REMARK   69  A    between atoms: _174  and  _175
REMARK   70  A    between atoms: _178  and  _180
REMARK   71  A    between atoms: _180  and  _181
REMARK   72  A    between atoms: _183  and  _185
REMARK   73  A    between atoms: _185  and  _186
REMARK   74  A    between atoms: _185  and  _188
REMARK   75  A    between atoms: _188  and  _189
REMARK   76  A    between atoms: _191  and  _193
REMARK   77  A    between atoms: _193  and  _194
REMARK   78  A    between atoms: _193  and  _196
REMARK   79  A    between atoms: _196  and  _197
REMARK   80  A    between atoms: _203  and  _205
REMARK   81  A    between atoms: _205  and  _206
REMARK   82  A    between atoms: _205  and  _208
REMARK   83  A    between atoms: _208  and  _209
REMARK   84  A    between atoms: _214  and  _216
REMARK   85  A    between atoms: _216  and  _217
REMARK   86  A    between atoms: _216  and  _219
REMARK   87  A    between atoms: _219  and  _220
REMARK   88  A    between atoms: _223  and  _225
REMARK   89  A    between atoms: _225  and  _226
REMARK   90  A    between atoms: _225  and  _228
REMARK   91  A    between atoms: _228  and  _229
REMARK   92  A    between atoms: _231  and  _233
REMARK   93  A    between atoms: _233  and  _234
REMARK   94  A    between atoms: _233  and  _236
REMARK   95  A    between atoms: _236  and  _237
REMARK   96  A    between atoms: _240  and  _242
REMARK   97  A    between atoms: _242  and  _243
REMARK   98  A    between atoms: _245  and  _247
REMARK   99  A    between atoms: _247  and  _248
REMARK  100  A    between atoms: _250  and  _252
REMARK  101  A    between atoms: _252  and  _253
REMARK  102  A    between atoms: _252  and  _255
REMARK  103  A    between atoms: _255  and  _256
REMARK  104  A    between atoms: _266  and  _268
REMARK  105  A    between atoms: _268  and  _269
REMARK  106  A    between atoms: _268  and  _271
REMARK  107  A    between atoms: _271  and  _272
REMARK  108  A    between atoms: _275  and  _277
REMARK  109  A    between atoms: _277  and  _278
REMARK  110  A    between atoms: _277  and  _280
REMARK  111  A    between atoms: _280  and  _281
REMARK  112  A    between atoms: _284  and  _286
REMARK  113  A    between atoms: _286  and  _287
REMARK  114  A    between atoms: _286  and  _289
REMARK  115  A    between atoms: _289  and  _290
REMARK  116  A    between atoms: _292  and  _294
REMARK  117  A    between atoms: _294  and  _295
REMARK  118  A    between atoms: _294  and  _297
REMARK  119  A    between atoms: _297  and  _298
REMARK  120  A    between atoms: _301  and  _303
REMARK  121  A    between atoms: _303  and  _304
REMARK  122  A    between atoms: _303  and  _306
REMARK  123  A    between atoms: _306  and  _307
REMARK  124  A    between atoms: _310  and  _312
REMARK  125  A    between atoms: _312  and  _313
REMARK  126  A    between atoms: _312  and  _315
REMARK  127  A    between atoms: _315  and  _316
REMARK  128  A    between atoms: _319  and  _321
REMARK  129  A    between atoms: _321  and  _322
REMARK  130  A    between atoms: _321  and  _324
REMARK  131  A    between atoms: _324  and  _325
REMARK  132  A    between atoms: _335  and  _337
REMARK  133  A    between atoms: _337  and  _338
REMARK  134  A    between atoms: _337  and  _340
REMARK  135  A    between atoms: _340  and  _341
REMARK  136  A    between atoms: _341  and  _342
REMARK  137  A    between atoms: _345  and  _347
REMARK  138  A    between atoms: _347  and  _348
REMARK  139  A    between atoms: _347  and  _350
REMARK  140  A    between atoms: _350  and  _351
REMARK  141  A    between atoms: _357  and  _359
REMARK  142  A    between atoms: _359  and  _360
REMARK  143  A    between atoms: _363  and  _365
REMARK  144  A    between atoms: _365  and  _366
REMARK  145  A    between atoms: _365  and  _368
REMARK  146  A    between atoms: _368  and  _369
REMARK  147  A    between atoms: _371  and  _373
REMARK  148  A    between atoms: _373  and  _374
REMARK  149  A    between atoms: _377  and  _379
REMARK  150  A    between atoms: _379  and  _380
REMARK  151  A    between atoms: _379  and  _382
REMARK  152  A    between atoms: _382  and  _383
REMARK  153  A    between atoms: _386  and  _388
REMARK  154  A    between atoms: _388  and  _389
REMARK  155  A    between atoms: _388  and  _391
REMARK  156  A    between atoms: _391  and  _392
REMARK  157  A    between atoms: _398  and  _400
REMARK  158  A    between atoms: _400  and  _401
REMARK  159  A    between atoms: _400  and  _403
REMARK  160  A    between atoms: _403  and  _404
REMARK  161  A    between atoms: _404  and  _405
REMARK  162  A    between atoms: _407  and  _409
REMARK  163  A    between atoms: _409  and  _410
REMARK  164  A    between atoms: _409  and  _412
REMARK  165  A    between atoms: _412  and  _413
REMARK  166  A    between atoms: _418  and  _419
REMARK  167  A    between atoms: _421  and  _423
REMARK  168  A    between atoms: _423  and  _424
REMARK  169  A    between atoms: _423  and  _426
REMARK  170  A    between atoms: _426  and  _427
REMARK  171  A    between atoms: _430  and  _432
REMARK  172  A    between atoms: _432  and  _433
REMARK  173  A    between atoms: _432  and  _435
REMARK  174  A    between atoms: _435  and  _436
REMARK  175  A    between atoms: _442  and  _444
REMARK  176  A    between atoms: _444  and  _445
REMARK  177  A    between atoms: _444  and  _447
REMARK  178  A    between atoms: _447  and  _448
REMARK  179  A    between atoms: _448  and  _449
REMARK  180  A    between atoms: _454  and  _456
REMARK  181  A    between atoms: _456  and  _457
REMARK  182  A    between atoms: _456  and  _459
REMARK  183  A    between atoms: _459  and  _460
REMARK  184  A    between atoms: _463  and  _465
REMARK  185  A    between atoms: _465  and  _466
REMARK  186  A    between atoms: _469  and  _471
REMARK  187  A    between atoms: _471  and  _472
REMARK  188  A    between atoms: _471  and  _474
REMARK  189  A    between atoms: _474  and  _475
REMARK  190  A    between atoms: _475  and  _476
REMARK  191  A    between atoms: _478  and  _480
REMARK  192  A    between atoms: _480  and  _481
REMARK  193  A    between atoms: _480  and  _483
REMARK  194  A    between atoms: _483  and  _484
REMARK  195  A    between atoms: _489  and  _490
REMARK  196  A    between atoms: _492  and  _494
REMARK  197  A    between atoms: _494  and  _495
REMARK  198  A    between atoms: _497  and  _499
REMARK  199  A    between atoms: _499  and  _500
REMARK  200  A    between atoms: _499  and  _502
REMARK  201  A    between atoms: _502  and  _503
REMARK  202  A    between atoms: _503  and  _504
REMARK  203  A    between atoms: _504  and  _505
REMARK  204  A    between atoms: _514  and  _516
REMARK  205  A    between atoms: _516  and  _517
REMARK  206  A    between atoms: _516  and  _519
REMARK  207  A    between atoms: _519  and  _520
REMARK  208  A    between atoms: _530  and  _532
REMARK  209  A    between atoms: _532  and  _533
REMARK  210  A    between atoms: _532  and  _535
REMARK  211  A    between atoms: _535  and  _536
REMARK  212  A    between atoms: _536  and  _537
REMARK  213  A    between atoms: _540  and  _542
REMARK  214  A    between atoms: _542  and  _543
REMARK  215  A    between atoms: _542  and  _545
REMARK  216  A    between atoms: _545  and  _546
REMARK  217  A    between atoms: _551  and  _553
REMARK  218  A    between atoms: _553  and  _554
REMARK  219  A    between atoms: _556  and  _558
REMARK  220  A    between atoms: _558  and  _559
REMARK  221  A    between atoms: _558  and  _561
REMARK  222  A    between atoms: _561  and  _562
REMARK  223  A    between atoms: _565  and  _567
REMARK  224  A    between atoms: _567  and  _568
REMARK  225  A    between atoms: _567  and  _570
REMARK  226  A    between atoms: _573  and  _575
REMARK  227  A    between atoms: _575  and  _576
REMARK  228  A    between atoms: _575  and  _578
REMARK  229  A    between atoms: _578  and  _579
REMARK  230  A    between atoms: _582  and  _584
REMARK  231  A    between atoms: _584  and  _585
REMARK  232  A    between atoms: _584  and  _587
REMARK  233  A    between atoms: _587  and  _588
REMARK  234  A    between atoms: _594  and  _596
REMARK  235  A    between atoms: _596  and  _597
REMARK  236  A    between atoms: _596  and  _599
REMARK  237  A    between atoms: _599  and  _600
REMARK  238  A    between atoms: _602  and  _604
REMARK  239  A    between atoms: _604  and  _605
REMARK  240  A    between atoms: _604  and  _607
REMARK  241  A    between atoms: _607  and  _608
REMARK  242  A    between atoms: _618  and  _620
REMARK  243  A    between atoms: _620  and  _621
REMARK  244  A    between atoms: _620  and  _623
REMARK  245  A    between atoms: _623  and  _624
REMARK  246  A    between atoms: _624  and  _625
REMARK  247  A    between atoms: _628  and  _630
REMARK  248  A    between atoms: _630  and  _631
REMARK  249  A    between atoms: _630  and  _633
REMARK  250  A    between atoms: _633  and  _634
REMARK  251  A    between atoms: _637  and  _639
REMARK  252  A    between atoms: _639  and  _640
REMARK                            x       y       z     vdW  Elec       q    Type
REMARK                         _______ _______ _______ _____ _____    ______ ____
ROOT
ATOM      1  O   HOH     1      37.114  75.994 -11.765  0.00  0.00    +0.000 OA
ENDROOT
TORSDOF 0
REMARK  Name = ../refined-set-2016/2wm0/2wm0_pocket.pdb
REMARK  252 active torsions:
REMARK  status: ('A' for Active; 'I' for Inactive)
REMARK    1  A    between atoms: _1  and  _3
REMARK    2  A    between atoms: _3  and  _4
REMARK    3  A    between atoms: _3  and  _6
REMARK    4  A    between atoms: _6  and  _7
REMARK    5  A    between atoms: _12  and  _13
REMARK    6  A    between atoms: _15  and  _17
REMARK    7  A    between atoms: _17  and  _18
REMARK    8  A    between atoms: _17  and  _20
REMARK    9  A    between atoms: _23  and  _25
REMARK   10  A    between atoms: _25  and  _26
REMARK   11  A    between atoms: _25  and  _28
REMARK   12  A    between atoms: _28  and  _29
REMARK   13  A    between atoms: _29  and  _30
REMARK   14  A    between atoms: _33  and  _35
REMARK   15  A    between atoms: _35  and  _36
REMARK   16  A    between atoms: _35  and  _38
REMARK   17  A    between atoms: _38  and  _39
REMARK   18  A    between atoms: _49  and  _51
REMARK   19  A    between atoms: _51  and  _52
REMARK   20  A    between atoms: _54  and  _56
REMARK   21  A    between atoms: _56  and  _57
REMARK   22  A    between atoms: _56  and  _59
REMARK   23  A    between atoms: _59  and  _60
REMARK   24  A    between atoms: _65  and  _66
REMARK   25  A    between atoms: _68  and  _70
REMARK   26  A    between atoms: _70  and  _71
REMARK   27  A    between atoms: _73  and  _75
REMARK   28  A    between atoms: _75  and  _76
REMARK   29  A    between atoms: _75  and  _78
REMARK   30  A    between atoms: _78  and  _79
REMARK   31  A    between atoms: _79  and  _80
REMARK   32  A    between atoms: _80  and  _81
REMARK   33  A    between atoms: _90  and  _92
REMARK   34  A    between atoms: _92  and  _93
REMARK   35  A    between atoms: _92  and  _95
REMARK   36  A    between atoms: _95  and  _96
REMARK   37  A    between atoms: _99  and  _101
REMARK   38  A    between atoms: _101  and  _102
REMARK   39  A    between atoms: _104  and  _106
REMARK   40  A    between atoms: _106  and  _107
REMARK   41  A    between atoms: _106  and  _109
REMARK   42  A    between atoms: _109  and  _110
REMARK   43  A    between atoms: _116  and  _118
REMARK   44  A    between atoms: _118  and  _119
REMARK   45  A    between atoms: _118  and  _121
REMARK   46  A    between atoms: _121  and  _122
REMARK   47  A    between atoms: _126  and  _127
REMARK   48  A    between atoms: _132  and  _134
REMARK   49  A    between atoms: _134  and  _135
REMARK   50  A    between atoms: _134  and  _137
REMARK   51  A    between atoms: _137  and  _138
REMARK   52  A    between atoms: _140  and  _142
REMARK   53  A    between atoms: _142  and  _143
REMARK   54  A    between atoms: _142  and  _145
REMARK   55  A    between atoms: _145  and  _146
REMARK   56  A    between atoms: _149  and  _151
REMARK   57  A    between atoms: _151  and  _152
REMARK   58  A    between atoms: _151  and  _154
REMARK   59  A    between atoms: _154  and  _155
REMARK   60  A    between atoms: _155  and  _156
REMARK   61  A    between atoms: _159  and  _161
REMARK   62  A    between atoms: _161  and  _162
REMARK   63  A    between atoms: _161  and  _164
REMARK   64  A    between atoms: _164  and  _165
REMARK   65  A    between atoms: _168  and  _170
REMARK   66  A    between atoms: _170  and  _171
REMARK   67  A    between atoms: _170  and  _173
REMARK   68  A    between atoms: _173  and  _174
REMARK   69  A    between atoms: _174  and  _175
REMARK   70  A    between atoms: _178  and  _180
REMARK   71  A    between atoms: _180  and  _181
REMARK   72  A    between atoms: _183  and  _185
REMARK   73  A    between atoms: _185  and  _186
REMARK   74  A    between atoms: _185  and  _188
REMARK   75  A    between atoms: _188  and  _189
REMARK   76  A    between atoms: _191  and  _193
REMARK   77  A    between atoms: _193  and  _194
REMARK   78  A    between atoms: _193  and  _196
REMARK   79  A    between atoms: _196  and  _197
REMARK   80  A    between atoms: _203  and  _205
REMARK   81  A    between atoms: _205  and  _206
REMARK   82  A    between atoms: _205  and  _208
REMARK   83  A    between atoms: _208  and  _209
REMARK   84  A    between atoms: _214  and  _216
REMARK   85  A    between atoms: _216  and  _217
REMARK   86  A    between atoms: _216  and  _219
REMARK   87  A    between atoms: _219  and  _220
REMARK   88  A    between atoms: _223  and  _225
REMARK   89  A    between atoms: _225  and  _226
REMARK   90  A    between atoms: _225  and  _228
REMARK   91  A    between atoms: _228  and  _229
REMARK   92  A    between atoms: _231  and  _233
REMARK   93  A    between atoms: _233  and  _234
REMARK   94  A    between atoms: _233  and  _236
REMARK   95  A    between atoms: _236  and  _237
REMARK   96  A    between atoms: _240  and  _242
REMARK   97  A    between atoms: _242  and  _243
REMARK   98  A    between atoms: _245  and  _247
REMARK   99  A    between atoms: _247  and  _248
REMARK  100  A    between atoms: _250  and  _252
REMARK  101  A    between atoms: _252  and  _253
REMARK  102  A    between atoms: _252  and  _255
REMARK  103  A    between atoms: _255  and  _256
REMARK  104  A    between atoms: _266  and  _268
REMARK  105  A    between atoms: _268  and  _269
REMARK  106  A    between atoms: _268  and  _271
REMARK  107  A    between atoms: _271  and  _272
REMARK  108  A    between atoms: _275  and  _277
REMARK  109  A    between atoms: _277  and  _278
REMARK  110  A    between atoms: _277  and  _280
REMARK  111  A    between atoms: _280  and  _281
REMARK  112  A    between atoms: _284  and  _286
REMARK  113  A    between atoms: _286  and  _287
REMARK  114  A    between atoms: _286  and  _289
REMARK  115  A    between atoms: _289  and  _290
REMARK  116  A    between atoms: _292  and  _294
REMARK  117  A    between atoms: _294  and  _295
REMARK  118  A    between atoms: _294  and  _297
REMARK  119  A    between atoms: _297  and  _298
REMARK  120  A    between atoms: _301  and  _303
REMARK  121  A    between atoms: _303  and  _304
REMARK  122  A    between atoms: _303  and  _306
REMARK  123  A    between atoms: _306  and  _307
REMARK  124  A    between atoms: _310  and  _312
REMARK  125  A    between atoms: _312  and  _313
REMARK  126  A    between atoms: _312  and  _315
REMARK  127  A    between atoms: _315  and  _316
REMARK  128  A    between atoms: _319  and  _321
REMARK  129  A    between atoms: _321  and  _322
REMARK  130  A    between atoms: _321  and  _324
REMARK  131  A    between atoms: _324  and  _325
REMARK  132  A    between atoms: _335  and  _337
REMARK  133  A    between atoms: _337  and  _338
REMARK  134  A    between atoms: _337  and  _340
REMARK  135  A    between atoms: _340  and  _341
REMARK  136  A    between atoms: _341  and  _342
REMARK  137  A    between atoms: _345  and  _347
REMARK  138  A    between atoms: _347  and  _348
REMARK  139  A    between atoms: _347  and  _350
REMARK  140  A    between atoms: _350  and  _351
REMARK  141  A    between atoms: _357  and  _359
REMARK  142  A    between atoms: _359  and  _360
REMARK  143  A    between atoms: _363  and  _365
REMARK  144  A    between atoms: _365  and  _366
REMARK  145  A    between atoms: _365  and  _368
REMARK  146  A    between atoms: _368  and  _369
REMARK  147  A    between atoms: _371  and  _373
REMARK  148  A    between atoms: _373  and  _374
REMARK  149  A    between atoms: _377  and  _379
REMARK  150  A    between atoms: _379  and  _380
REMARK  151  A    between atoms: _379  and  _382
REMARK  152  A    between atoms: _382  and  _383
REMARK  153  A    between atoms: _386  and  _388
REMARK  154  A    between atoms: _388  and  _389
REMARK  155  A    between atoms: _388  and  _391
REMARK  156  A    between atoms: _391  and  _392
REMARK  157  A    between atoms: _398  and  _400
REMARK  158  A    between atoms: _400  and  _401
REMARK  159  A    between atoms: _400  and  _403
REMARK  160  A    between atoms: _403  and  _404
REMARK  161  A    between atoms: _404  and  _405
REMARK  162  A    between atoms: _407  and  _409
REMARK  163  A    between atoms: _409  and  _410
REMARK  164  A    between atoms: _409  and  _412
REMARK  165  A    between atoms: _412  and  _413
REMARK  166  A    between atoms: _418  and  _419
REMARK  167  A    between atoms: _421  and  _423
REMARK  168  A    between atoms: _423  and  _424
REMARK  169  A    between atoms: _423  and  _426
REMARK  170  A    between atoms: _426  and  _427
REMARK  171  A    between atoms: _430  and  _432
REMARK  172  A    between atoms: _432  and  _433
REMARK  173  A    between atoms: _432  and  _435
REMARK  174  A    between atoms: _435  and  _436
REMARK  175  A    between atoms: _442  and  _444
REMARK  176  A    between atoms: _444  and  _445
REMARK  177  A    between atoms: _444  and  _447
REMARK  178  A    between atoms: _447  and  _448
REMARK  179  A    between atoms: _448  and  _449
REMARK  180  A    between atoms: _454  and  _456
REMARK  181  A    between atoms: _456  and  _457
REMARK  182  A    between atoms: _456  and  _459
REMARK  183  A    between atoms: _459  and  _460
REMARK  184  A    between atoms: _463  and  _465
REMARK  185  A    between atoms: _465  and  _466
REMARK  186  A    between atoms: _469  and  _471
REMARK  187  A    between atoms: _471  and  _472
REMARK  188  A    between atoms: _471  and  _474
REMARK  189  A    between atoms: _474  and  _475
REMARK  190  A    between atoms: _475  and  _476
REMARK  191  A    between atoms: _478  and  _480
REMARK  192  A    between atoms: _480  and  _481
REMARK  193  A    between atoms: _480  and  _483
REMARK  194  A    between atoms: _483  and  _484
REMARK  195  A    between atoms: _489  and  _490
REMARK  196  A    between atoms: _492  and  _494
REMARK  197  A    between atoms: _494  and  _495
REMARK  198  A    between atoms: _497  and  _499
REMARK  199  A    between atoms: _499  and  _500
REMARK  200  A    between atoms: _499  and  _502
REMARK  201  A    between atoms: _502  and  _503
REMARK  202  A    between atoms: _503  and  _504
REMARK  203  A    between atoms: _504  and  _505
REMARK  204  A    between atoms: _514  and  _516
REMARK  205  A    between atoms: _516  and  _517
REMARK  206  A    between atoms: _516  and  _519
REMARK  207  A    between atoms: _519  and  _520
REMARK  208  A    between atoms: _530  and  _532
REMARK  209  A    between atoms: _532  and  _533
REMARK  210  A    between atoms: _532  and  _535
REMARK  211  A    between atoms: _535  and  _536
REMARK  212  A    between atoms: _536  and  _537
REMARK  213  A    between atoms: _540  and  _542
REMARK  214  A    between atoms: _542  and  _543
REMARK  215  A    between atoms: _542  and  _545
REMARK  216  A    between atoms: _545  and  _546
REMARK  217  A    between atoms: _551  and  _553
REMARK  218  A    between atoms: _553  and  _554
REMARK  219  A    between atoms: _556  and  _558
REMARK  220  A    between atoms: _558  and  _559
REMARK  221  A    between atoms: _558  and  _561
REMARK  222  A    between atoms: _561  and  _562
REMARK  223  A    between atoms: _565  and  _567
REMARK  224  A    between atoms: _567  and  _568
REMARK  225  A    between atoms: _567  and  _570
REMARK  226  A    between atoms: _573  and  _575
REMARK  227  A    between atoms: _575  and  _576
REMARK  228  A    between atoms: _575  and  _578
REMARK  229  A    between atoms: _578  and  _579
REMARK  230  A    between atoms: _582  and  _584
REMARK  231  A    between atoms: _584  and  _585
REMARK  232  A    between atoms: _584  and  _587
REMARK  233  A    between atoms: _587  and  _588
REMARK  234  A    between atoms: _594  and  _596
REMARK  235  A    between atoms: _596  and  _597
REMARK  236  A    between atoms: _596  and  _599
REMARK  237  A    between atoms: _599  and  _600
REMARK  238  A    between atoms: _602  and  _604
REMARK  239  A    between atoms: _604  and  _605
REMARK  240  A    between atoms: _604  and  _607
REMARK  241  A    between atoms: _607  and  _608
REMARK  242  A    between atoms: _618  and  _620
REMARK  243  A    between atoms: _620  and  _621
REMARK  244  A    between atoms: _620  and  _623
REMARK  245  A    between atoms: _623  and  _624
REMARK  246  A    between atoms: _624  and  _625
REMARK  247  A    between atoms: _628  and  _630
REMARK  248  A    between atoms: _630  and  _631
REMARK  249  A    between atoms: _630  and  _633
REMARK  250  A    between atoms: _633  and  _634
REMARK  251  A    between atoms: _637  and  _639
REMARK  252  A    between atoms: _639  and  _640
REMARK                            x       y       z     vdW  Elec       q    Type
REMARK                         _______ _______ _______ _____ _____    ______ ____
ROOT
ATOM      1  O   HOH     1      33.022  75.376 -12.694  0.00  0.00    +0.000 OA
ENDROOT
TORSDOF 0
REMARK  Name = ../refined-set-2016/2wm0/2wm0_pocket.pdb
REMARK  252 active torsions:
REMARK  status: ('A' for Active; 'I' for Inactive)
REMARK    1  A    between atoms: _1  and  _3
REMARK    2  A    between atoms: _3  and  _4
REMARK    3  A    between atoms: _3  and  _6
REMARK    4  A    between atoms: _6  and  _7
REMARK    5  A    between atoms: _12  and  _13
REMARK    6  A    between atoms: _15  and  _17
REMARK    7  A    between atoms: _17  and  _18
REMARK    8  A    between atoms: _17  and  _20
REMARK    9  A    between atoms: _23  and  _25
REMARK   10  A    between atoms: _25  and  _26
REMARK   11  A    between atoms: _25  and  _28
REMARK   12  A    between atoms: _28  and  _29
REMARK   13  A    between atoms: _29  and  _30
REMARK   14  A    between atoms: _33  and  _35
REMARK   15  A    between atoms: _35  and  _36
REMARK   16  A    between atoms: _35  and  _38
REMARK   17  A    between atoms: _38  and  _39
REMARK   18  A    between atoms: _49  and  _51
REMARK   19  A    between atoms: _51  and  _52
REMARK   20  A    between atoms: _54  and  _56
REMARK   21  A    between atoms: _56  and  _57
REMARK   22  A    between atoms: _56  and  _59
REMARK   23  A    between atoms: _59  and  _60
REMARK   24  A    between atoms: _65  and  _66
REMARK   25  A    between atoms: _68  and  _70
REMARK   26  A    between atoms: _70  and  _71
REMARK   27  A    between atoms: _73  and  _75
REMARK   28  A    between atoms: _75  and  _76
REMARK   29  A    between atoms: _75  and  _78
REMARK   30  A    between atoms: _78  and  _79
REMARK   31  A    between atoms: _79  and  _80
REMARK   32  A    between atoms: _80  and  _81
REMARK   33  A    between atoms: _90  and  _92
REMARK   34  A    between atoms: _92  and  _93
REMARK   35  A    between atoms: _92  and  _95
REMARK   36  A    between atoms: _95  and  _96
REMARK   37  A    between atoms: _99  and  _101
REMARK   38  A    between atoms: _101  and  _102
REMARK   39  A    between atoms: _104  and  _106
REMARK   40  A    between atoms: _106  and  _107
REMARK   41  A    between atoms: _106  and  _109
REMARK   42  A    between atoms: _109  and  _110
REMARK   43  A    between atoms: _116  and  _118
REMARK   44  A    between atoms: _118  and  _119
REMARK   45  A    between atoms: _118  and  _121
REMARK   46  A    between atoms: _121  and  _122
REMARK   47  A    between atoms: _126  and  _127
REMARK   48  A    between atoms: _132  and  _134
REMARK   49  A    between atoms: _134  and  _135
REMARK   50  A    between atoms: _134  and  _137
REMARK   51  A    between atoms: _137  and  _138
REMARK   52  A    between atoms: _140  and  _142
REMARK   53  A    between atoms: _142  and  _143
REMARK   54  A    between atoms: _142  and  _145
REMARK   55  A    between atoms: _145  and  _146
REMARK   56  A    between atoms: _149  and  _151
REMARK   57  A    between atoms: _151  and  _152
REMARK   58  A    between atoms: _151  and  _154
REMARK   59  A    between atoms: _154  and  _155
REMARK   60  A    between atoms: _155  and  _156
REMARK   61  A    between atoms: _159  and  _161
REMARK   62  A    between atoms: _161  and  _162
REMARK   63  A    between atoms: _161  and  _164
REMARK   64  A    between atoms: _164  and  _165
REMARK   65  A    between atoms: _168  and  _170
REMARK   66  A    between atoms: _170  and  _171
REMARK   67  A    between atoms: _170  and  _173
REMARK   68  A    between atoms: _173  and  _174
REMARK   69  A    between atoms: _174  and  _175
REMARK   70  A    between atoms: _178  and  _180
REMARK   71  A    between atoms: _180  and  _181
REMARK   72  A    between atoms: _183  and  _185
REMARK   73  A    between atoms: _185  and  _186
REMARK   74  A    between atoms: _185  and  _188
REMARK   75  A    between atoms: _188  and  _189
REMARK   76  A    between atoms: _191  and  _193
REMARK   77  A    between atoms: _193  and  _194
REMARK   78  A    between atoms: _193  and  _196
REMARK   79  A    between atoms: _196  and  _197
REMARK   80  A    between atoms: _203  and  _205
REMARK   81  A    between atoms: _205  and  _206
REMARK   82  A    between atoms: _205  and  _208
REMARK   83  A    between atoms: _208  and  _209
REMARK   84  A    between atoms: _214  and  _216
REMARK   85  A    between atoms: _216  and  _217
REMARK   86  A    between atoms: _216  and  _219
REMARK   87  A    between atoms: _219  and  _220
REMARK   88  A    between atoms: _223  and  _225
REMARK   89  A    between atoms: _225  and  _226
REMARK   90  A    between atoms: _225  and  _228
REMARK   91  A    between atoms: _228  and  _229
REMARK   92  A    between atoms: _231  and  _233
REMARK   93  A    between atoms: _233  and  _234
REMARK   94  A    between atoms: _233  and  _236
REMARK   95  A    between atoms: _236  and  _237
REMARK   96  A    between atoms: _240  and  _242
REMARK   97  A    between atoms: _242  and  _243
REMARK   98  A    between atoms: _245  and  _247
REMARK   99  A    between atoms: _247  and  _248
REMARK  100  A    between atoms: _250  and  _252
REMARK  101  A    between atoms: _252  and  _253
REMARK  102  A    between atoms: _252  and  _255
REMARK  103  A    between atoms: _255  and  _256
REMARK  104  A    between atoms: _266  and  _268
REMARK  105  A    between atoms: _268  and  _269
REMARK  106  A    between atoms: _268  and  _271
REMARK  107  A    between atoms: _271  and  _272
REMARK  108  A    between atoms: _275  and  _277
REMARK  109  A    between atoms: _277  and  _278
REMARK  110  A    between atoms: _277  and  _280
REMARK  111  A    between atoms: _280  and  _281
REMARK  112  A    between atoms: _284  and  _286
REMARK  113  A    between atoms: _286  and  _287
REMARK  114  A    between atoms: _286  and  _289
REMARK  115  A    between atoms: _289  and  _290
REMARK  116  A    between atoms: _292  and  _294
REMARK  117  A    between atoms: _294  and  _295
REMARK  118  A    between atoms: _294  and  _297
REMARK  119  A    between atoms: _297  and  _298
REMARK  120  A    between atoms: _301  and  _303
REMARK  121  A    between atoms: _303  and  _304
REMARK  122  A    between atoms: _303  and  _306
REMARK  123  A    between atoms: _306  and  _307
REMARK  124  A    between atoms: _310  and  _312
REMARK  125  A    between atoms: _312  and  _313
REMARK  126  A    between atoms: _312  and  _315
REMARK  127  A    between atoms: _315  and  _316
REMARK  128  A    between atoms: _319  and  _321
REMARK  129  A    between atoms: _321  and  _322
REMARK  130  A    between atoms: _321  and  _324
REMARK  131  A    between atoms: _324  and  _325
REMARK  132  A    between atoms: _335  and  _337
REMARK  133  A    between atoms: _337  and  _338
REMARK  134  A    between atoms: _337  and  _340
REMARK  135  A    between atoms: _340  and  _341
REMARK  136  A    between atoms: _341  and  _342
REMARK  137  A    between atoms: _345  and  _347
REMARK  138  A    between atoms: _347  and  _348
REMARK  139  A    between atoms: _347  and  _350
REMARK  140  A    between atoms: _350  and  _351
REMARK  141  A    between atoms: _357  and  _359
REMARK  142  A    between atoms: _359  and  _360
REMARK  143  A    between atoms: _363  and  _365
REMARK  144  A    between atoms: _365  and  _366
REMARK  145  A    between atoms: _365  and  _368
REMARK  146  A    between atoms: _368  and  _369
REMARK  147  A    between atoms: _371  and  _373
REMARK  148  A    between atoms: _373  and  _374
REMARK  149  A    between atoms: _377  and  _379
REMARK  150  A    between atoms: _379  and  _380
REMARK  151  A    between atoms: _379  and  _382
REMARK  152  A    between atoms: _382  and  _383
REMARK  153  A    between atoms: _386  and  _388
REMARK  154  A    between atoms: _388  and  _389
REMARK  155  A    between atoms: _388  and  _391
REMARK  156  A    between atoms: _391  and  _392
REMARK  157  A    between atoms: _398  and  _400
REMARK  158  A    between atoms: _400  and  _401
REMARK  159  A    between atoms: _400  and  _403
REMARK  160  A    between atoms: _403  and  _404
REMARK  161  A    between atoms: _404  and  _405
REMARK  162  A    between atoms: _407  and  _409
REMARK  163  A    between atoms: _409  and  _410
REMARK  164  A    between atoms: _409  and  _412
REMARK  165  A    between atoms: _412  and  _413
REMARK  166  A    between atoms: _418  and  _419
REMARK  167  A    between atoms: _421  and  _423
REMARK  168  A    between atoms: _423  and  _424
REMARK  169  A    between atoms: _423  and  _426
REMARK  170  A    between atoms: _426  and  _427
REMARK  171  A    between atoms: _430  and  _432
REMARK  172  A    between atoms: _432  and  _433
REMARK  173  A    between atoms: _432  and  _435
REMARK  174  A    between atoms: _435  and  _436
REMARK  175  A    between atoms: _442  and  _444
REMARK  176  A    between atoms: _444  and  _445
REMARK  177  A    between atoms: _444  and  _447
REMARK  178  A    between atoms: _447  and  _448
REMARK  179  A    between atoms: _448  and  _449
REMARK  180  A    between atoms: _454  and  _456
REMARK  181  A    between atoms: _456  and  _457
REMARK  182  A    between atoms: _456  and  _459
REMARK  183  A    between atoms: _459  and  _460
REMARK  184  A    between atoms: _463  and  _465
REMARK  185  A    between atoms: _465  and  _466
REMARK  186  A    between atoms: _469  and  _471
REMARK  187  A    between atoms: _471  and  _472
REMARK  188  A    between atoms: _471  and  _474
REMARK  189  A    between atoms: _474  and  _475
REMARK  190  A    between atoms: _475  and  _476
REMARK  191  A    between atoms: _478  and  _480
REMARK  192  A    between atoms: _480  and  _481
REMARK  193  A    between atoms: _480  and  _483
REMARK  194  A    between atoms: _483  and  _484
REMARK  195  A    between atoms: _489  and  _490
REMARK  196  A    between atoms: _492  and  _494
REMARK  197  A    between atoms: _494  and  _495
REMARK  198  A    between atoms: _497  and  _499
REMARK  199  A    between atoms: _499  and  _500
REMARK  200  A    between atoms: _499  and  _502
REMARK  201  A    between atoms: _502  and  _503
REMARK  202  A    between atoms: _503  and  _504
REMARK  203  A    between atoms: _504  and  _505
REMARK  204  A    between atoms: _514  and  _516
REMARK  205  A    between atoms: _516  and  _517
REMARK  206  A    between atoms: _516  and  _519
REMARK  207  A    between atoms: _519  and  _520
REMARK  208  A    between atoms: _530  and  _532
REMARK  209  A    between atoms: _532  and  _533
REMARK  210  A    between atoms: _532  and  _535
REMARK  211  A    between atoms: _535  and  _536
REMARK  212  A    between atoms: _536  and  _537
REMARK  213  A    between atoms: _540  and  _542
REMARK  214  A    between atoms: _542  and  _543
REMARK  215  A    between atoms: _542  and  _545
REMARK  216  A    between atoms: _545  and  _546
REMARK  217  A    between atoms: _551  and  _553
REMARK  218  A    between atoms: _553  and  _554
REMARK  219  A    between atoms: _556  and  _558
REMARK  220  A    between atoms: _558  and  _559
REMARK  221  A    between atoms: _558  and  _561
REMARK  222  A    between atoms: _561  and  _562
REMARK  223  A    between atoms: _565  and  _567
REMARK  224  A    between atoms: _567  and  _568
REMARK  225  A    between atoms: _567  and  _570
REMARK  226  A    between atoms: _573  and  _575
REMARK  227  A    between atoms: _575  and  _576
REMARK  228  A    between atoms: _575  and  _578
REMARK  229  A    between atoms: _578  and  _579
REMARK  230  A    between atoms: _582  and  _584
REMARK  231  A    between atoms: _584  and  _585
REMARK  232  A    between atoms: _584  and  _587
REMARK  233  A    between atoms: _587  and  _588
REMARK  234  A    between atoms: _594  and  _596
REMARK  235  A    between atoms: _596  and  _597
REMARK  236  A    between atoms: _596  and  _599
REMARK  237  A    between atoms: _599  and  _600
REMARK  238  A    between atoms: _602  and  _604
REMARK  239  A    between atoms: _604  and  _605
REMARK  240  A    between atoms: _604  and  _607
REMARK  241  A    between atoms: _607  and  _608
REMARK  242  A    between atoms: _618  and  _620
REMARK  243  A    between atoms: _620  and  _621
REMARK  244  A    between atoms: _620  and  _623
REMARK  245  A    between atoms: _623  and  _624
REMARK  246  A    between atoms: _624  and  _625
REMARK  247  A    between atoms: _628  and  _630
REMARK  248  A    between atoms: _630  and  _631
REMARK  249  A    between atoms: _630  and  _633
REMARK  250  A    between atoms: _633  and  _634
REMARK  251  A    between atoms: _637  and  _639
REMARK  252  A    between atoms: _639  and  _640
REMARK                            x       y       z     vdW  Elec       q    Type
REMARK                         _______ _______ _______ _____ _____    ______ ____
ROOT
ATOM      1  O   HOH     1      36.206  66.800  -5.010  0.00  0.00    +0.000 OA
ENDROOT
TORSDOF 0
REMARK  Name = ../refined-set-2016/2wm0/2wm0_pocket.pdb
REMARK  252 active torsions:
REMARK  status: ('A' for Active; 'I' for Inactive)
REMARK    1  A    between atoms: _1  and  _3
REMARK    2  A    between atoms: _3  and  _4
REMARK    3  A    between atoms: _3  and  _6
REMARK    4  A    between atoms: _6  and  _7
REMARK    5  A    between atoms: _12  and  _13
REMARK    6  A    between atoms: _15  and  _17
REMARK    7  A    between atoms: _17  and  _18
REMARK    8  A    between atoms: _17  and  _20
REMARK    9  A    between atoms: _23  and  _25
REMARK   10  A    between atoms: _25  and  _26
REMARK   11  A    between atoms: _25  and  _28
REMARK   12  A    between atoms: _28  and  _29
REMARK   13  A    between atoms: _29  and  _30
REMARK   14  A    between atoms: _33  and  _35
REMARK   15  A    between atoms: _35  and  _36
REMARK   16  A    between atoms: _35  and  _38
REMARK   17  A    between atoms: _38  and  _39
REMARK   18  A    between atoms: _49  and  _51
REMARK   19  A    between atoms: _51  and  _52
REMARK   20  A    between atoms: _54  and  _56
REMARK   21  A    between atoms: _56  and  _57
REMARK   22  A    between atoms: _56  and  _59
REMARK   23  A    between atoms: _59  and  _60
REMARK   24  A    between atoms: _65  and  _66
REMARK   25  A    between atoms: _68  and  _70
REMARK   26  A    between atoms: _70  and  _71
REMARK   27  A    between atoms: _73  and  _75
REMARK   28  A    between atoms: _75  and  _76
REMARK   29  A    between atoms: _75  and  _78
REMARK   30  A    between atoms: _78  and  _79
REMARK   31  A    between atoms: _79  and  _80
REMARK   32  A    between atoms: _80  and  _81
REMARK   33  A    between atoms: _90  and  _92
REMARK   34  A    between atoms: _92  and  _93
REMARK   35  A    between atoms: _92  and  _95
REMARK   36  A    between atoms: _95  and  _96
REMARK   37  A    between atoms: _99  and  _101
REMARK   38  A    between atoms: _101  and  _102
REMARK   39  A    between atoms: _104  and  _106
REMARK   40  A    between atoms: _106  and  _107
REMARK   41  A    between atoms: _106  and  _109
REMARK   42  A    between atoms: _109  and  _110
REMARK   43  A    between atoms: _116  and  _118
REMARK   44  A    between atoms: _118  and  _119
REMARK   45  A    between atoms: _118  and  _121
REMARK   46  A    between atoms: _121  and  _122
REMARK   47  A    between atoms: _126  and  _127
REMARK   48  A    between atoms: _132  and  _134
REMARK   49  A    between atoms: _134  and  _135
REMARK   50  A    between atoms: _134  and  _137
REMARK   51  A    between atoms: _137  and  _138
REMARK   52  A    between atoms: _140  and  _142
REMARK   53  A    between atoms: _142  and  _143
REMARK   54  A    between atoms: _142  and  _145
REMARK   55  A    between atoms: _145  and  _146
REMARK   56  A    between atoms: _149  and  _151
REMARK   57  A    between atoms: _151  and  _152
REMARK   58  A    between atoms: _151  and  _154
REMARK   59  A    between atoms: _154  and  _155
REMARK   60  A    between atoms: _155  and  _156
REMARK   61  A    between atoms: _159  and  _161
REMARK   62  A    between atoms: _161  and  _162
REMARK   63  A    between atoms: _161  and  _164
REMARK   64  A    between atoms: _164  and  _165
REMARK   65  A    between atoms: _168  and  _170
REMARK   66  A    between atoms: _170  and  _171
REMARK   67  A    between atoms: _170  and  _173
REMARK   68  A    between atoms: _173  and  _174
REMARK   69  A    between atoms: _174  and  _175
REMARK   70  A    between atoms: _178  and  _180
REMARK   71  A    between atoms: _180  and  _181
REMARK   72  A    between atoms: _183  and  _185
REMARK   73  A    between atoms: _185  and  _186
REMARK   74  A    between atoms: _185  and  _188
REMARK   75  A    between atoms: _188  and  _189
REMARK   76  A    between atoms: _191  and  _193
REMARK   77  A    between atoms: _193  and  _194
REMARK   78  A    between atoms: _193  and  _196
REMARK   79  A    between atoms: _196  and  _197
REMARK   80  A    between atoms: _203  and  _205
REMARK   81  A    between atoms: _205  and  _206
REMARK   82  A    between atoms: _205  and  _208
REMARK   83  A    between atoms: _208  and  _209
REMARK   84  A    between atoms: _214  and  _216
REMARK   85  A    between atoms: _216  and  _217
REMARK   86  A    between atoms: _216  and  _219
REMARK   87  A    between atoms: _219  and  _220
REMARK   88  A    between atoms: _223  and  _225
REMARK   89  A    between atoms: _225  and  _226
REMARK   90  A    between atoms: _225  and  _228
REMARK   91  A    between atoms: _228  and  _229
REMARK   92  A    between atoms: _231  and  _233
REMARK   93  A    between atoms: _233  and  _234
REMARK   94  A    between atoms: _233  and  _236
REMARK   95  A    between atoms: _236  and  _237
REMARK   96  A    between atoms: _240  and  _242
REMARK   97  A    between atoms: _242  and  _243
REMARK   98  A    between atoms: _245  and  _247
REMARK   99  A    between atoms: _247  and  _248
REMARK  100  A    between atoms: _250  and  _252
REMARK  101  A    between atoms: _252  and  _253
REMARK  102  A    between atoms: _252  and  _255
REMARK  103  A    between atoms: _255  and  _256
REMARK  104  A    between atoms: _266  and  _268
REMARK  105  A    between atoms: _268  and  _269
REMARK  106  A    between atoms: _268  and  _271
REMARK  107  A    between atoms: _271  and  _272
REMARK  108  A    between atoms: _275  and  _277
REMARK  109  A    between atoms: _277  and  _278
REMARK  110  A    between atoms: _277  and  _280
REMARK  111  A    between atoms: _280  and  _281
REMARK  112  A    between atoms: _284  and  _286
REMARK  113  A    between atoms: _286  and  _287
REMARK  114  A    between atoms: _286  and  _289
REMARK  115  A    between atoms: _289  and  _290
REMARK  116  A    between atoms: _292  and  _294
REMARK  117  A    between atoms: _294  and  _295
REMARK  118  A    between atoms: _294  and  _297
REMARK  119  A    between atoms: _297  and  _298
REMARK  120  A    between atoms: _301  and  _303
REMARK  121  A    between atoms: _303  and  _304
REMARK  122  A    between atoms: _303  and  _306
REMARK  123  A    between atoms: _306  and  _307
REMARK  124  A    between atoms: _310  and  _312
REMARK  125  A    between atoms: _312  and  _313
REMARK  126  A    between atoms: _312  and  _315
REMARK  127  A    between atoms: _315  and  _316
REMARK  128  A    between atoms: _319  and  _321
REMARK  129  A    between atoms: _321  and  _322
REMARK  130  A    between atoms: _321  and  _324
REMARK  131  A    between atoms: _324  and  _325
REMARK  132  A    between atoms: _335  and  _337
REMARK  133  A    between atoms: _337  and  _338
REMARK  134  A    between atoms: _337  and  _340
REMARK  135  A    between atoms: _340  and  _341
REMARK  136  A    between atoms: _341  and  _342
REMARK  137  A    between atoms: _345  and  _347
REMARK  138  A    between atoms: _347  and  _348
REMARK  139  A    between atoms: _347  and  _350
REMARK  140  A    between atoms: _350  and  _351
REMARK  141  A    between atoms: _357  and  _359
REMARK  142  A    between atoms: _359  and  _360
REMARK  143  A    between atoms: _363  and  _365
REMARK  144  A    between atoms: _365  and  _366
REMARK  145  A    between atoms: _365  and  _368
REMARK  146  A    between atoms: _368  and  _369
REMARK  147  A    between atoms: _371  and  _373
REMARK  148  A    between atoms: _373  and  _374
REMARK  149  A    between atoms: _377  and  _379
REMARK  150  A    between atoms: _379  and  _380
REMARK  151  A    between atoms: _379  and  _382
REMARK  152  A    between atoms: _382  and  _383
REMARK  153  A    between atoms: _386  and  _388
REMARK  154  A    between atoms: _388  and  _389
REMARK  155  A    between atoms: _388  and  _391
REMARK  156  A    between atoms: _391  and  _392
REMARK  157  A    between atoms: _398  and  _400
REMARK  158  A    between atoms: _400  and  _401
REMARK  159  A    between atoms: _400  and  _403
REMARK  160  A    between atoms: _403  and  _404
REMARK  161  A    between atoms: _404  and  _405
REMARK  162  A    between atoms: _407  and  _409
REMARK  163  A    between atoms: _409  and  _410
REMARK  164  A    between atoms: _409  and  _412
REMARK  165  A    between atoms: _412  and  _413
REMARK  166  A    between atoms: _418  and  _419
REMARK  167  A    between atoms: _421  and  _423
REMARK  168  A    between atoms: _423  and  _424
REMARK  169  A    between atoms: _423  and  _426
REMARK  170  A    between atoms: _426  and  _427
REMARK  171  A    between atoms: _430  and  _432
REMARK  172  A    between atoms: _432  and  _433
REMARK  173  A    between atoms: _432  and  _435
REMARK  174  A    between atoms: _435  and  _436
REMARK  175  A    between atoms: _442  and  _444
REMARK  176  A    between atoms: _444  and  _445
REMARK  177  A    between atoms: _444  and  _447
REMARK  178  A    between atoms: _447  and  _448
REMARK  179  A    between atoms: _448  and  _449
REMARK  180  A    between atoms: _454  and  _456
REMARK  181  A    between atoms: _456  and  _457
REMARK  182  A    between atoms: _456  and  _459
REMARK  183  A    between atoms: _459  and  _460
REMARK  184  A    between atoms: _463  and  _465
REMARK  185  A    between atoms: _465  and  _466
REMARK  186  A    between atoms: _469  and  _471
REMARK  187  A    between atoms: _471  and  _472
REMARK  188  A    between atoms: _471  and  _474
REMARK  189  A    between atoms: _474  and  _475
REMARK  190  A    between atoms: _475  and  _476
REMARK  191  A    between atoms: _478  and  _480
REMARK  192  A    between atoms: _480  and  _481
REMARK  193  A    between atoms: _480  and  _483
REMARK  194  A    between atoms: _483  and  _484
REMARK  195  A    between atoms: _489  and  _490
REMARK  196  A    between atoms: _492  and  _494
REMARK  197  A    between atoms: _494  and  _495
REMARK  198  A    between atoms: _497  and  _499
REMARK  199  A    between atoms: _499  and  _500
REMARK  200  A    between atoms: _499  and  _502
REMARK  201  A    between atoms: _502  and  _503
REMARK  202  A    between atoms: _503  and  _504
REMARK  203  A    between atoms: _504  and  _505
REMARK  204  A    between atoms: _514  and  _516
REMARK  205  A    between atoms: _516  and  _517
REMARK  206  A    between atoms: _516  and  _519
REMARK  207  A    between atoms: _519  and  _520
REMARK  208  A    between atoms: _530  and  _532
REMARK  209  A    between atoms: _532  and  _533
REMARK  210  A    between atoms: _532  and  _535
REMARK  211  A    between atoms: _535  and  _536
REMARK  212  A    between atoms: _536  and  _537
REMARK  213  A    between atoms: _540  and  _542
REMARK  214  A    between atoms: _542  and  _543
REMARK  215  A    between atoms: _542  and  _545
REMARK  216  A    between atoms: _545  and  _546
REMARK  217  A    between atoms: _551  and  _553
REMARK  218  A    between atoms: _553  and  _554
REMARK  219  A    between atoms: _556  and  _558
REMARK  220  A    between atoms: _558  and  _559
REMARK  221  A    between atoms: _558  and  _561
REMARK  222  A    between atoms: _561  and  _562
REMARK  223  A    between atoms: _565  and  _567
REMARK  224  A    between atoms: _567  and  _568
REMARK  225  A    between atoms: _567  and  _570
REMARK  226  A    between atoms: _573  and  _575
REMARK  227  A    between atoms: _575  and  _576
REMARK  228  A    between atoms: _575  and  _578
REMARK  229  A    between atoms: _578  and  _579
REMARK  230  A    between atoms: _582  and  _584
REMARK  231  A    between atoms: _584  and  _585
REMARK  232  A    between atoms: _584  and  _587
REMARK  233  A    between atoms: _587  and  _588
REMARK  234  A    between atoms: _594  and  _596
REMARK  235  A    between atoms: _596  and  _597
REMARK  236  A    between atoms: _596  and  _599
REMARK  237  A    between atoms: _599  and  _600
REMARK  238  A    between atoms: _602  and  _604
REMARK  239  A    between atoms: _604  and  _605
REMARK  240  A    between atoms: _604  and  _607
REMARK  241  A    between atoms: _607  and  _608
REMARK  242  A    between atoms: _618  and  _620
REMARK  243  A    between atoms: _620  and  _621
REMARK  244  A    between atoms: _620  and  _623
REMARK  245  A    between atoms: _623  and  _624
REMARK  246  A    between atoms: _624  and  _625
REMARK  247  A    between atoms: _628  and  _630
REMARK  248  A    between atoms: _630  and  _631
REMARK  249  A    between atoms: _630  and  _633
REMARK  250  A    between atoms: _633  and  _634
REMARK  251  A    between atoms: _637  and  _639
REMARK  252  A    between atoms: _639  and  _640
REMARK                            x       y       z     vdW  Elec       q    Type
REMARK                         _______ _______ _______ _____ _____    ______ ____
ROOT
ATOM      1  O   HOH     1      26.122  71.034  -7.110  0.00  0.00    +0.000 OA
ENDROOT
TORSDOF 0
REMARK  Name = ../refined-set-2016/2wm0/2wm0_pocket.pdb
REMARK  252 active torsions:
REMARK  status: ('A' for Active; 'I' for Inactive)
REMARK    1  A    between atoms: _1  and  _3
REMARK    2  A    between atoms: _3  and  _4
REMARK    3  A    between atoms: _3  and  _6
REMARK    4  A    between atoms: _6  and  _7
REMARK    5  A    between atoms: _12  and  _13
REMARK    6  A    between atoms: _15  and  _17
REMARK    7  A    between atoms: _17  and  _18
REMARK    8  A    between atoms: _17  and  _20
REMARK    9  A    between atoms: _23  and  _25
REMARK   10  A    between atoms: _25  and  _26
REMARK   11  A    between atoms: _25  and  _28
REMARK   12  A    between atoms: _28  and  _29
REMARK   13  A    between atoms: _29  and  _30
REMARK   14  A    between atoms: _33  and  _35
REMARK   15  A    between atoms: _35  and  _36
REMARK   16  A    between atoms: _35  and  _38
REMARK   17  A    between atoms: _38  and  _39
REMARK   18  A    between atoms: _49  and  _51
REMARK   19  A    between atoms: _51  and  _52
REMARK   20  A    between atoms: _54  and  _56
REMARK   21  A    between atoms: _56  and  _57
REMARK   22  A    between atoms: _56  and  _59
REMARK   23  A    between atoms: _59  and  _60
REMARK   24  A    between atoms: _65  and  _66
REMARK   25  A    between atoms: _68  and  _70
REMARK   26  A    between atoms: _70  and  _71
REMARK   27  A    between atoms: _73  and  _75
REMARK   28  A    between atoms: _75  and  _76
REMARK   29  A    between atoms: _75  and  _78
REMARK   30  A    between atoms: _78  and  _79
REMARK   31  A    between atoms: _79  and  _80
REMARK   32  A    between atoms: _80  and  _81
REMARK   33  A    between atoms: _90  and  _92
REMARK   34  A    between atoms: _92  and  _93
REMARK   35  A    between atoms: _92  and  _95
REMARK   36  A    between atoms: _95  and  _96
REMARK   37  A    between atoms: _99  and  _101
REMARK   38  A    between atoms: _101  and  _102
REMARK   39  A    between atoms: _104  and  _106
REMARK   40  A    between atoms: _106  and  _107
REMARK   41  A    between atoms: _106  and  _109
REMARK   42  A    between atoms: _109  and  _110
REMARK   43  A    between atoms: _116  and  _118
REMARK   44  A    between atoms: _118  and  _119
REMARK   45  A    between atoms: _118  and  _121
REMARK   46  A    between atoms: _121  and  _122
REMARK   47  A    between atoms: _126  and  _127
REMARK   48  A    between atoms: _132  and  _134
REMARK   49  A    between atoms: _134  and  _135
REMARK   50  A    between atoms: _134  and  _137
REMARK   51  A    between atoms: _137  and  _138
REMARK   52  A    between atoms: _140  and  _142
REMARK   53  A    between atoms: _142  and  _143
REMARK   54  A    between atoms: _142  and  _145
REMARK   55  A    between atoms: _145  and  _146
REMARK   56  A    between atoms: _149  and  _151
REMARK   57  A    between atoms: _151  and  _152
REMARK   58  A    between atoms: _151  and  _154
REMARK   59  A    between atoms: _154  and  _155
REMARK   60  A    between atoms: _155  and  _156
REMARK   61  A    between atoms: _159  and  _161
REMARK   62  A    between atoms: _161  and  _162
REMARK   63  A    between atoms: _161  and  _164
REMARK   64  A    between atoms: _164  and  _165
REMARK   65  A    between atoms: _168  and  _170
REMARK   66  A    between atoms: _170  and  _171
REMARK   67  A    between atoms: _170  and  _173
REMARK   68  A    between atoms: _173  and  _174
REMARK   69  A    between atoms: _174  and  _175
REMARK   70  A    between atoms: _178  and  _180
REMARK   71  A    between atoms: _180  and  _181
REMARK   72  A    between atoms: _183  and  _185
REMARK   73  A    between atoms: _185  and  _186
REMARK   74  A    between atoms: _185  and  _188
REMARK   75  A    between atoms: _188  and  _189
REMARK   76  A    between atoms: _191  and  _193
REMARK   77  A    between atoms: _193  and  _194
REMARK   78  A    between atoms: _193  and  _196
REMARK   79  A    between atoms: _196  and  _197
REMARK   80  A    between atoms: _203  and  _205
REMARK   81  A    between atoms: _205  and  _206
REMARK   82  A    between atoms: _205  and  _208
REMARK   83  A    between atoms: _208  and  _209
REMARK   84  A    between atoms: _214  and  _216
REMARK   85  A    between atoms: _216  and  _217
REMARK   86  A    between atoms: _216  and  _219
REMARK   87  A    between atoms: _219  and  _220
REMARK   88  A    between atoms: _223  and  _225
REMARK   89  A    between atoms: _225  and  _226
REMARK   90  A    between atoms: _225  and  _228
REMARK   91  A    between atoms: _228  and  _229
REMARK   92  A    between atoms: _231  and  _233
REMARK   93  A    between atoms: _233  and  _234
REMARK   94  A    between atoms: _233  and  _236
REMARK   95  A    between atoms: _236  and  _237
REMARK   96  A    between atoms: _240  and  _242
REMARK   97  A    between atoms: _242  and  _243
REMARK   98  A    between atoms: _245  and  _247
REMARK   99  A    between atoms: _247  and  _248
REMARK  100  A    between atoms: _250  and  _252
REMARK  101  A    between atoms: _252  and  _253
REMARK  102  A    between atoms: _252  and  _255
REMARK  103  A    between atoms: _255  and  _256
REMARK  104  A    between atoms: _266  and  _268
REMARK  105  A    between atoms: _268  and  _269
REMARK  106  A    between atoms: _268  and  _271
REMARK  107  A    between atoms: _271  and  _272
REMARK  108  A    between atoms: _275  and  _277
REMARK  109  A    between atoms: _277  and  _278
REMARK  110  A    between atoms: _277  and  _280
REMARK  111  A    between atoms: _280  and  _281
REMARK  112  A    between atoms: _284  and  _286
REMARK  113  A    between atoms: _286  and  _287
REMARK  114  A    between atoms: _286  and  _289
REMARK  115  A    between atoms: _289  and  _290
REMARK  116  A    between atoms: _292  and  _294
REMARK  117  A    between atoms: _294  and  _295
REMARK  118  A    between atoms: _294  and  _297
REMARK  119  A    between atoms: _297  and  _298
REMARK  120  A    between atoms: _301  and  _303
REMARK  121  A    between atoms: _303  and  _304
REMARK  122  A    between atoms: _303  and  _306
REMARK  123  A    between atoms: _306  and  _307
REMARK  124  A    between atoms: _310  and  _312
REMARK  125  A    between atoms: _312  and  _313
REMARK  126  A    between atoms: _312  and  _315
REMARK  127  A    between atoms: _315  and  _316
REMARK  128  A    between atoms: _319  and  _321
REMARK  129  A    between atoms: _321  and  _322
REMARK  130  A    between atoms: _321  and  _324
REMARK  131  A    between atoms: _324  and  _325
REMARK  132  A    between atoms: _335  and  _337
REMARK  133  A    between atoms: _337  and  _338
REMARK  134  A    between atoms: _337  and  _340
REMARK  135  A    between atoms: _340  and  _341
REMARK  136  A    between atoms: _341  and  _342
REMARK  137  A    between atoms: _345  and  _347
REMARK  138  A    between atoms: _347  and  _348
REMARK  139  A    between atoms: _347  and  _350
REMARK  140  A    between atoms: _350  and  _351
REMARK  141  A    between atoms: _357  and  _359
REMARK  142  A    between atoms: _359  and  _360
REMARK  143  A    between atoms: _363  and  _365
REMARK  144  A    between atoms: _365  and  _366
REMARK  145  A    between atoms: _365  and  _368
REMARK  146  A    between atoms: _368  and  _369
REMARK  147  A    between atoms: _371  and  _373
REMARK  148  A    between atoms: _373  and  _374
REMARK  149  A    between atoms: _377  and  _379
REMARK  150  A    between atoms: _379  and  _380
REMARK  151  A    between atoms: _379  and  _382
REMARK  152  A    between atoms: _382  and  _383
REMARK  153  A    between atoms: _386  and  _388
REMARK  154  A    between atoms: _388  and  _389
REMARK  155  A    between atoms: _388  and  _391
REMARK  156  A    between atoms: _391  and  _392
REMARK  157  A    between atoms: _398  and  _400
REMARK  158  A    between atoms: _400  and  _401
REMARK  159  A    between atoms: _400  and  _403
REMARK  160  A    between atoms: _403  and  _404
REMARK  161  A    between atoms: _404  and  _405
REMARK  162  A    between atoms: _407  and  _409
REMARK  163  A    between atoms: _409  and  _410
REMARK  164  A    between atoms: _409  and  _412
REMARK  165  A    between atoms: _412  and  _413
REMARK  166  A    between atoms: _418  and  _419
REMARK  167  A    between atoms: _421  and  _423
REMARK  168  A    between atoms: _423  and  _424
REMARK  169  A    between atoms: _423  and  _426
REMARK  170  A    between atoms: _426  and  _427
REMARK  171  A    between atoms: _430  and  _432
REMARK  172  A    between atoms: _432  and  _433
REMARK  173  A    between atoms: _432  and  _435
REMARK  174  A    between atoms: _435  and  _436
REMARK  175  A    between atoms: _442  and  _444
REMARK  176  A    between atoms: _444  and  _445
REMARK  177  A    between atoms: _444  and  _447
REMARK  178  A    between atoms: _447  and  _448
REMARK  179  A    between atoms: _448  and  _449
REMARK  180  A    between atoms: _454  and  _456
REMARK  181  A    between atoms: _456  and  _457
REMARK  182  A    between atoms: _456  and  _459
REMARK  183  A    between atoms: _459  and  _460
REMARK  184  A    between atoms: _463  and  _465
REMARK  185  A    between atoms: _465  and  _466
REMARK  186  A    between atoms: _469  and  _471
REMARK  187  A    between atoms: _471  and  _472
REMARK  188  A    between atoms: _471  and  _474
REMARK  189  A    between atoms: _474  and  _475
REMARK  190  A    between atoms: _475  and  _476
REMARK  191  A    between atoms: _478  and  _480
REMARK  192  A    between atoms: _480  and  _481
REMARK  193  A    between atoms: _480  and  _483
REMARK  194  A    between atoms: _483  and  _484
REMARK  195  A    between atoms: _489  and  _490
REMARK  196  A    between atoms: _492  and  _494
REMARK  197  A    between atoms: _494  and  _495
REMARK  198  A    between atoms: _497  and  _499
REMARK  199  A    between atoms: _499  and  _500
REMARK  200  A    between atoms: _499  and  _502
REMARK  201  A    between atoms: _502  and  _503
REMARK  202  A    between atoms: _503  and  _504
REMARK  203  A    between atoms: _504  and  _505
REMARK  204  A    between atoms: _514  and  _516
REMARK  205  A    between atoms: _516  and  _517
REMARK  206  A    between atoms: _516  and  _519
REMARK  207  A    between atoms: _519  and  _520
REMARK  208  A    between atoms: _530  and  _532
REMARK  209  A    between atoms: _532  and  _533
REMARK  210  A    between atoms: _532  and  _535
REMARK  211  A    between atoms: _535  and  _536
REMARK  212  A    between atoms: _536  and  _537
REMARK  213  A    between atoms: _540  and  _542
REMARK  214  A    between atoms: _542  and  _543
REMARK  215  A    between atoms: _542  and  _545
REMARK  216  A    between atoms: _545  and  _546
REMARK  217  A    between atoms: _551  and  _553
REMARK  218  A    between atoms: _553  and  _554
REMARK  219  A    between atoms: _556  and  _558
REMARK  220  A    between atoms: _558  and  _559
REMARK  221  A    between atoms: _558  and  _561
REMARK  222  A    between atoms: _561  and  _562
REMARK  223  A    between atoms: _565  and  _567
REMARK  224  A    between atoms: _567  and  _568
REMARK  225  A    between atoms: _567  and  _570
REMARK  226  A    between atoms: _573  and  _575
REMARK  227  A    between atoms: _575  and  _576
REMARK  228  A    between atoms: _575  and  _578
REMARK  229  A    between atoms: _578  and  _579
REMARK  230  A    between atoms: _582  and  _584
REMARK  231  A    between atoms: _584  and  _585
REMARK  232  A    between atoms: _584  and  _587
REMARK  233  A    between atoms: _587  and  _588
REMARK  234  A    between atoms: _594  and  _596
REMARK  235  A    between atoms: _596  and  _597
REMARK  236  A    between atoms: _596  and  _599
REMARK  237  A    between atoms: _599  and  _600
REMARK  238  A    between atoms: _602  and  _604
REMARK  239  A    between atoms: _604  and  _605
REMARK  240  A    between atoms: _604  and  _607
REMARK  241  A    between atoms: _607  and  _608
REMARK  242  A    between atoms: _618  and  _620
REMARK  243  A    between atoms: _620  and  _621
REMARK  244  A    between atoms: _620  and  _623
REMARK  245  A    between atoms: _623  and  _624
REMARK  246  A    between atoms: _624  and  _625
REMARK  247  A    between atoms: _628  and  _630
REMARK  248  A    between atoms: _630  and  _631
REMARK  249  A    between atoms: _630  and  _633
REMARK  250  A    between atoms: _633  and  _634
REMARK  251  A    between atoms: _637  and  _639
REMARK  252  A    between atoms: _639  and  _640
REMARK                            x       y       z     vdW  Elec       q    Type
REMARK                         _______ _______ _______ _____ _____    ______ ____
ROOT
ATOM      1  O   HOH     1      23.907  65.819  -7.048  0.00  0.00    +0.000 OA
ENDROOT
TORSDOF 0
REMARK  Name = ../refined-set-2016/2wm0/2wm0_pocket.pdb
REMARK  252 active torsions:
REMARK  status: ('A' for Active; 'I' for Inactive)
REMARK    1  A    between atoms: _1  and  _3
REMARK    2  A    between atoms: _3  and  _4
REMARK    3  A    between atoms: _3  and  _6
REMARK    4  A    between atoms: _6  and  _7
REMARK    5  A    between atoms: _12  and  _13
REMARK    6  A    between atoms: _15  and  _17
REMARK    7  A    between atoms: _17  and  _18
REMARK    8  A    between atoms: _17  and  _20
REMARK    9  A    between atoms: _23  and  _25
REMARK   10  A    between atoms: _25  and  _26
REMARK   11  A    between atoms: _25  and  _28
REMARK   12  A    between atoms: _28  and  _29
REMARK   13  A    between atoms: _29  and  _30
REMARK   14  A    between atoms: _33  and  _35
REMARK   15  A    between atoms: _35  and  _36
REMARK   16  A    between atoms: _35  and  _38
REMARK   17  A    between atoms: _38  and  _39
REMARK   18  A    between atoms: _49  and  _51
REMARK   19  A    between atoms: _51  and  _52
REMARK   20  A    between atoms: _54  and  _56
REMARK   21  A    between atoms: _56  and  _57
REMARK   22  A    between atoms: _56  and  _59
REMARK   23  A    between atoms: _59  and  _60
REMARK   24  A    between atoms: _65  and  _66
REMARK   25  A    between atoms: _68  and  _70
REMARK   26  A    between atoms: _70  and  _71
REMARK   27  A    between atoms: _73  and  _75
REMARK   28  A    between atoms: _75  and  _76
REMARK   29  A    between atoms: _75  and  _78
REMARK   30  A    between atoms: _78  and  _79
REMARK   31  A    between atoms: _79  and  _80
REMARK   32  A    between atoms: _80  and  _81
REMARK   33  A    between atoms: _90  and  _92
REMARK   34  A    between atoms: _92  and  _93
REMARK   35  A    between atoms: _92  and  _95
REMARK   36  A    between atoms: _95  and  _96
REMARK   37  A    between atoms: _99  and  _101
REMARK   38  A    between atoms: _101  and  _102
REMARK   39  A    between atoms: _104  and  _106
REMARK   40  A    between atoms: _106  and  _107
REMARK   41  A    between atoms: _106  and  _109
REMARK   42  A    between atoms: _109  and  _110
REMARK   43  A    between atoms: _116  and  _118
REMARK   44  A    between atoms: _118  and  _119
REMARK   45  A    between atoms: _118  and  _121
REMARK   46  A    between atoms: _121  and  _122
REMARK   47  A    between atoms: _126  and  _127
REMARK   48  A    between atoms: _132  and  _134
REMARK   49  A    between atoms: _134  and  _135
REMARK   50  A    between atoms: _134  and  _137
REMARK   51  A    between atoms: _137  and  _138
REMARK   52  A    between atoms: _140  and  _142
REMARK   53  A    between atoms: _142  and  _143
REMARK   54  A    between atoms: _142  and  _145
REMARK   55  A    between atoms: _145  and  _146
REMARK   56  A    between atoms: _149  and  _151
REMARK   57  A    between atoms: _151  and  _152
REMARK   58  A    between atoms: _151  and  _154
REMARK   59  A    between atoms: _154  and  _155
REMARK   60  A    between atoms: _155  and  _156
REMARK   61  A    between atoms: _159  and  _161
REMARK   62  A    between atoms: _161  and  _162
REMARK   63  A    between atoms: _161  and  _164
REMARK   64  A    between atoms: _164  and  _165
REMARK   65  A    between atoms: _168  and  _170
REMARK   66  A    between atoms: _170  and  _171
REMARK   67  A    between atoms: _170  and  _173
REMARK   68  A    between atoms: _173  and  _174
REMARK   69  A    between atoms: _174  and  _175
REMARK   70  A    between atoms: _178  and  _180
REMARK   71  A    between atoms: _180  and  _181
REMARK   72  A    between atoms: _183  and  _185
REMARK   73  A    between atoms: _185  and  _186
REMARK   74  A    between atoms: _185  and  _188
REMARK   75  A    between atoms: _188  and  _189
REMARK   76  A    between atoms: _191  and  _193
REMARK   77  A    between atoms: _193  and  _194
REMARK   78  A    between atoms: _193  and  _196
REMARK   79  A    between atoms: _196  and  _197
REMARK   80  A    between atoms: _203  and  _205
REMARK   81  A    between atoms: _205  and  _206
REMARK   82  A    between atoms: _205  and  _208
REMARK   83  A    between atoms: _208  and  _209
REMARK   84  A    between atoms: _214  and  _216
REMARK   85  A    between atoms: _216  and  _217
REMARK   86  A    between atoms: _216  and  _219
REMARK   87  A    between atoms: _219  and  _220
REMARK   88  A    between atoms: _223  and  _225
REMARK   89  A    between atoms: _225  and  _226
REMARK   90  A    between atoms: _225  and  _228
REMARK   91  A    between atoms: _228  and  _229
REMARK   92  A    between atoms: _231  and  _233
REMARK   93  A    between atoms: _233  and  _234
REMARK   94  A    between atoms: _233  and  _236
REMARK   95  A    between atoms: _236  and  _237
REMARK   96  A    between atoms: _240  and  _242
REMARK   97  A    between atoms: _242  and  _243
REMARK   98  A    between atoms: _245  and  _247
REMARK   99  A    between atoms: _247  and  _248
REMARK  100  A    between atoms: _250  and  _252
REMARK  101  A    between atoms: _252  and  _253
REMARK  102  A    between atoms: _252  and  _255
REMARK  103  A    between atoms: _255  and  _256
REMARK  104  A    between atoms: _266  and  _268
REMARK  105  A    between atoms: _268  and  _269
REMARK  106  A    between atoms: _268  and  _271
REMARK  107  A    between atoms: _271  and  _272
REMARK  108  A    between atoms: _275  and  _277
REMARK  109  A    between atoms: _277  and  _278
REMARK  110  A    between atoms: _277  and  _280
REMARK  111  A    between atoms: _280  and  _281
REMARK  112  A    between atoms: _284  and  _286
REMARK  113  A    between atoms: _286  and  _287
REMARK  114  A    between atoms: _286  and  _289
REMARK  115  A    between atoms: _289  and  _290
REMARK  116  A    between atoms: _292  and  _294
REMARK  117  A    between atoms: _294  and  _295
REMARK  118  A    between atoms: _294  and  _297
REMARK  119  A    between atoms: _297  and  _298
REMARK  120  A    between atoms: _301  and  _303
REMARK  121  A    between atoms: _303  and  _304
REMARK  122  A    between atoms: _303  and  _306
REMARK  123  A    between atoms: _306  and  _307
REMARK  124  A    between atoms: _310  and  _312
REMARK  125  A    between atoms: _312  and  _313
REMARK  126  A    between atoms: _312  and  _315
REMARK  127  A    between atoms: _315  and  _316
REMARK  128  A    between atoms: _319  and  _321
REMARK  129  A    between atoms: _321  and  _322
REMARK  130  A    between atoms: _321  and  _324
REMARK  131  A    between atoms: _324  and  _325
REMARK  132  A    between atoms: _335  and  _337
REMARK  133  A    between atoms: _337  and  _338
REMARK  134  A    between atoms: _337  and  _340
REMARK  135  A    between atoms: _340  and  _341
REMARK  136  A    between atoms: _341  and  _342
REMARK  137  A    between atoms: _345  and  _347
REMARK  138  A    between atoms: _347  and  _348
REMARK  139  A    between atoms: _347  and  _350
REMARK  140  A    between atoms: _350  and  _351
REMARK  141  A    between atoms: _357  and  _359
REMARK  142  A    between atoms: _359  and  _360
REMARK  143  A    between atoms: _363  and  _365
REMARK  144  A    between atoms: _365  and  _366
REMARK  145  A    between atoms: _365  and  _368
REMARK  146  A    between atoms: _368  and  _369
REMARK  147  A    between atoms: _371  and  _373
REMARK  148  A    between atoms: _373  and  _374
REMARK  149  A    between atoms: _377  and  _379
REMARK  150  A    between atoms: _379  and  _380
REMARK  151  A    between atoms: _379  and  _382
REMARK  152  A    between atoms: _382  and  _383
REMARK  153  A    between atoms: _386  and  _388
REMARK  154  A    between atoms: _388  and  _389
REMARK  155  A    between atoms: _388  and  _391
REMARK  156  A    between atoms: _391  and  _392
REMARK  157  A    between atoms: _398  and  _400
REMARK  158  A    between atoms: _400  and  _401
REMARK  159  A    between atoms: _400  and  _403
REMARK  160  A    between atoms: _403  and  _404
REMARK  161  A    between atoms: _404  and  _405
REMARK  162  A    between atoms: _407  and  _409
REMARK  163  A    between atoms: _409  and  _410
REMARK  164  A    between atoms: _409  and  _412
REMARK  165  A    between atoms: _412  and  _413
REMARK  166  A    between atoms: _418  and  _419
REMARK  167  A    between atoms: _421  and  _423
REMARK  168  A    between atoms: _423  and  _424
REMARK  169  A    between atoms: _423  and  _426
REMARK  170  A    between atoms: _426  and  _427
REMARK  171  A    between atoms: _430  and  _432
REMARK  172  A    between atoms: _432  and  _433
REMARK  173  A    between atoms: _432  and  _435
REMARK  174  A    between atoms: _435  and  _436
REMARK  175  A    between atoms: _442  and  _444
REMARK  176  A    between atoms: _444  and  _445
REMARK  177  A    between atoms: _444  and  _447
REMARK  178  A    between atoms: _447  and  _448
REMARK  179  A    between atoms: _448  and  _449
REMARK  180  A    between atoms: _454  and  _456
REMARK  181  A    between atoms: _456  and  _457
REMARK  182  A    between atoms: _456  and  _459
REMARK  183  A    between atoms: _459  and  _460
REMARK  184  A    between atoms: _463  and  _465
REMARK  185  A    between atoms: _465  and  _466
REMARK  186  A    between atoms: _469  and  _471
REMARK  187  A    between atoms: _471  and  _472
REMARK  188  A    between atoms: _471  and  _474
REMARK  189  A    between atoms: _474  and  _475
REMARK  190  A    between atoms: _475  and  _476
REMARK  191  A    between atoms: _478  and  _480
REMARK  192  A    between atoms: _480  and  _481
REMARK  193  A    between atoms: _480  and  _483
REMARK  194  A    between atoms: _483  and  _484
REMARK  195  A    between atoms: _489  and  _490
REMARK  196  A    between atoms: _492  and  _494
REMARK  197  A    between atoms: _494  and  _495
REMARK  198  A    between atoms: _497  and  _499
REMARK  199  A    between atoms: _499  and  _500
REMARK  200  A    between atoms: _499  and  _502
REMARK  201  A    between atoms: _502  and  _503
REMARK  202  A    between atoms: _503  and  _504
REMARK  203  A    between atoms: _504  and  _505
REMARK  204  A    between atoms: _514  and  _516
REMARK  205  A    between atoms: _516  and  _517
REMARK  206  A    between atoms: _516  and  _519
REMARK  207  A    between atoms: _519  and  _520
REMARK  208  A    between atoms: _530  and  _532
REMARK  209  A    between atoms: _532  and  _533
REMARK  210  A    between atoms: _532  and  _535
REMARK  211  A    between atoms: _535  and  _536
REMARK  212  A    between atoms: _536  and  _537
REMARK  213  A    between atoms: _540  and  _542
REMARK  214  A    between atoms: _542  and  _543
REMARK  215  A    between atoms: _542  and  _545
REMARK  216  A    between atoms: _545  and  _546
REMARK  217  A    between atoms: _551  and  _553
REMARK  218  A    between atoms: _553  and  _554
REMARK  219  A    between atoms: _556  and  _558
REMARK  220  A    between atoms: _558  and  _559
REMARK  221  A    between atoms: _558  and  _561
REMARK  222  A    between atoms: _561  and  _562
REMARK  223  A    between atoms: _565  and  _567
REMARK  224  A    between atoms: _567  and  _568
REMARK  225  A    between atoms: _567  and  _570
REMARK  226  A    between atoms: _573  and  _575
REMARK  227  A    between atoms: _575  and  _576
REMARK  228  A    between atoms: _575  and  _578
REMARK  229  A    between atoms: _578  and  _579
REMARK  230  A    between atoms: _582  and  _584
REMARK  231  A    between atoms: _584  and  _585
REMARK  232  A    between atoms: _584  and  _587
REMARK  233  A    between atoms: _587  and  _588
REMARK  234  A    between atoms: _594  and  _596
REMARK  235  A    between atoms: _596  and  _597
REMARK  236  A    between atoms: _596  and  _599
REMARK  237  A    between atoms: _599  and  _600
REMARK  238  A    between atoms: _602  and  _604
REMARK  239  A    between atoms: _604  and  _605
REMARK  240  A    between atoms: _604  and  _607
REMARK  241  A    between atoms: _607  and  _608
REMARK  242  A    between atoms: _618  and  _620
REMARK  243  A    between atoms: _620  and  _621
REMARK  244  A    between atoms: _620  and  _623
REMARK  245  A    between atoms: _623  and  _624
REMARK  246  A    between atoms: _624  and  _625
REMARK  247  A    between atoms: _628  and  _630
REMARK  248  A    between atoms: _630  and  _631
REMARK  249  A    between atoms: _630  and  _633
REMARK  250  A    between atoms: _633  and  _634
REMARK  251  A    between atoms: _637  and  _639
REMARK  252  A    between atoms: _639  and  _640
REMARK                            x       y       z     vdW  Elec       q    Type
REMARK                         _______ _______ _______ _____ _____    ______ ____
ROOT
ATOM      1  O   HOH     1      33.802  66.165 -13.339  0.00  0.00    +0.000 OA
ENDROOT
TORSDOF 0
REMARK  Name = ../refined-set-2016/2wm0/2wm0_pocket.pdb
REMARK  252 active torsions:
REMARK  status: ('A' for Active; 'I' for Inactive)
REMARK    1  A    between atoms: _1  and  _3
REMARK    2  A    between atoms: _3  and  _4
REMARK    3  A    between atoms: _3  and  _6
REMARK    4  A    between atoms: _6  and  _7
REMARK    5  A    between atoms: _12  and  _13
REMARK    6  A    between atoms: _15  and  _17
REMARK    7  A    between atoms: _17  and  _18
REMARK    8  A    between atoms: _17  and  _20
REMARK    9  A    between atoms: _23  and  _25
REMARK   10  A    between atoms: _25  and  _26
REMARK   11  A    between atoms: _25  and  _28
REMARK   12  A    between atoms: _28  and  _29
REMARK   13  A    between atoms: _29  and  _30
REMARK   14  A    between atoms: _33  and  _35
REMARK   15  A    between atoms: _35  and  _36
REMARK   16  A    between atoms: _35  and  _38
REMARK   17  A    between atoms: _38  and  _39
REMARK   18  A    between atoms: _49  and  _51
REMARK   19  A    between atoms: _51  and  _52
REMARK   20  A    between atoms: _54  and  _56
REMARK   21  A    between atoms: _56  and  _57
REMARK   22  A    between atoms: _56  and  _59
REMARK   23  A    between atoms: _59  and  _60
REMARK   24  A    between atoms: _65  and  _66
REMARK   25  A    between atoms: _68  and  _70
REMARK   26  A    between atoms: _70  and  _71
REMARK   27  A    between atoms: _73  and  _75
REMARK   28  A    between atoms: _75  and  _76
REMARK   29  A    between atoms: _75  and  _78
REMARK   30  A    between atoms: _78  and  _79
REMARK   31  A    between atoms: _79  and  _80
REMARK   32  A    between atoms: _80  and  _81
REMARK   33  A    between atoms: _90  and  _92
REMARK   34  A    between atoms: _92  and  _93
REMARK   35  A    between atoms: _92  and  _95
REMARK   36  A    between atoms: _95  and  _96
REMARK   37  A    between atoms: _99  and  _101
REMARK   38  A    between atoms: _101  and  _102
REMARK   39  A    between atoms: _104  and  _106
REMARK   40  A    between atoms: _106  and  _107
REMARK   41  A    between atoms: _106  and  _109
REMARK   42  A    between atoms: _109  and  _110
REMARK   43  A    between atoms: _116  and  _118
REMARK   44  A    between atoms: _118  and  _119
REMARK   45  A    between atoms: _118  and  _121
REMARK   46  A    between atoms: _121  and  _122
REMARK   47  A    between atoms: _126  and  _127
REMARK   48  A    between atoms: _132  and  _134
REMARK   49  A    between atoms: _134  and  _135
REMARK   50  A    between atoms: _134  and  _137
REMARK   51  A    between atoms: _137  and  _138
REMARK   52  A    between atoms: _140  and  _142
REMARK   53  A    between atoms: _142  and  _143
REMARK   54  A    between atoms: _142  and  _145
REMARK   55  A    between atoms: _145  and  _146
REMARK   56  A    between atoms: _149  and  _151
REMARK   57  A    between atoms: _151  and  _152
REMARK   58  A    between atoms: _151  and  _154
REMARK   59  A    between atoms: _154  and  _155
REMARK   60  A    between atoms: _155  and  _156
REMARK   61  A    between atoms: _159  and  _161
REMARK   62  A    between atoms: _161  and  _162
REMARK   63  A    between atoms: _161  and  _164
REMARK   64  A    between atoms: _164  and  _165
REMARK   65  A    between atoms: _168  and  _170
REMARK   66  A    between atoms: _170  and  _171
REMARK   67  A    between atoms: _170  and  _173
REMARK   68  A    between atoms: _173  and  _174
REMARK   69  A    between atoms: _174  and  _175
REMARK   70  A    between atoms: _178  and  _180
REMARK   71  A    between atoms: _180  and  _181
REMARK   72  A    between atoms: _183  and  _185
REMARK   73  A    between atoms: _185  and  _186
REMARK   74  A    between atoms: _185  and  _188
REMARK   75  A    between atoms: _188  and  _189
REMARK   76  A    between atoms: _191  and  _193
REMARK   77  A    between atoms: _193  and  _194
REMARK   78  A    between atoms: _193  and  _196
REMARK   79  A    between atoms: _196  and  _197
REMARK   80  A    between atoms: _203  and  _205
REMARK   81  A    between atoms: _205  and  _206
REMARK   82  A    between atoms: _205  and  _208
REMARK   83  A    between atoms: _208  and  _209
REMARK   84  A    between atoms: _214  and  _216
REMARK   85  A    between atoms: _216  and  _217
REMARK   86  A    between atoms: _216  and  _219
REMARK   87  A    between atoms: _219  and  _220
REMARK   88  A    between atoms: _223  and  _225
REMARK   89  A    between atoms: _225  and  _226
REMARK   90  A    between atoms: _225  and  _228
REMARK   91  A    between atoms: _228  and  _229
REMARK   92  A    between atoms: _231  and  _233
REMARK   93  A    between atoms: _233  and  _234
REMARK   94  A    between atoms: _233  and  _236
REMARK   95  A    between atoms: _236  and  _237
REMARK   96  A    between atoms: _240  and  _242
REMARK   97  A    between atoms: _242  and  _243
REMARK   98  A    between atoms: _245  and  _247
REMARK   99  A    between atoms: _247  and  _248
REMARK  100  A    between atoms: _250  and  _252
REMARK  101  A    between atoms: _252  and  _253
REMARK  102  A    between atoms: _252  and  _255
REMARK  103  A    between atoms: _255  and  _256
REMARK  104  A    between atoms: _266  and  _268
REMARK  105  A    between atoms: _268  and  _269
REMARK  106  A    between atoms: _268  and  _271
REMARK  107  A    between atoms: _271  and  _272
REMARK  108  A    between atoms: _275  and  _277
REMARK  109  A    between atoms: _277  and  _278
REMARK  110  A    between atoms: _277  and  _280
REMARK  111  A    between atoms: _280  and  _281
REMARK  112  A    between atoms: _284  and  _286
REMARK  113  A    between atoms: _286  and  _287
REMARK  114  A    between atoms: _286  and  _289
REMARK  115  A    between atoms: _289  and  _290
REMARK  116  A    between atoms: _292  and  _294
REMARK  117  A    between atoms: _294  and  _295
REMARK  118  A    between atoms: _294  and  _297
REMARK  119  A    between atoms: _297  and  _298
REMARK  120  A    between atoms: _301  and  _303
REMARK  121  A    between atoms: _303  and  _304
REMARK  122  A    between atoms: _303  and  _306
REMARK  123  A    between atoms: _306  and  _307
REMARK  124  A    between atoms: _310  and  _312
REMARK  125  A    between atoms: _312  and  _313
REMARK  126  A    between atoms: _312  and  _315
REMARK  127  A    between atoms: _315  and  _316
REMARK  128  A    between atoms: _319  and  _321
REMARK  129  A    between atoms: _321  and  _322
REMARK  130  A    between atoms: _321  and  _324
REMARK  131  A    between atoms: _324  and  _325
REMARK  132  A    between atoms: _335  and  _337
REMARK  133  A    between atoms: _337  and  _338
REMARK  134  A    between atoms: _337  and  _340
REMARK  135  A    between atoms: _340  and  _341
REMARK  136  A    between atoms: _341  and  _342
REMARK  137  A    between atoms: _345  and  _347
REMARK  138  A    between atoms: _347  and  _348
REMARK  139  A    between atoms: _347  and  _350
REMARK  140  A    between atoms: _350  and  _351
REMARK  141  A    between atoms: _357  and  _359
REMARK  142  A    between atoms: _359  and  _360
REMARK  143  A    between atoms: _363  and  _365
REMARK  144  A    between atoms: _365  and  _366
REMARK  145  A    between atoms: _365  and  _368
REMARK  146  A    between atoms: _368  and  _369
REMARK  147  A    between atoms: _371  and  _373
REMARK  148  A    between atoms: _373  and  _374
REMARK  149  A    between atoms: _377  and  _379
REMARK  150  A    between atoms: _379  and  _380
REMARK  151  A    between atoms: _379  and  _382
REMARK  152  A    between atoms: _382  and  _383
REMARK  153  A    between atoms: _386  and  _388
REMARK  154  A    between atoms: _388  and  _389
REMARK  155  A    between atoms: _388  and  _391
REMARK  156  A    between atoms: _391  and  _392
REMARK  157  A    between atoms: _398  and  _400
REMARK  158  A    between atoms: _400  and  _401
REMARK  159  A    between atoms: _400  and  _403
REMARK  160  A    between atoms: _403  and  _404
REMARK  161  A    between atoms: _404  and  _405
REMARK  162  A    between atoms: _407  and  _409
REMARK  163  A    between atoms: _409  and  _410
REMARK  164  A    between atoms: _409  and  _412
REMARK  165  A    between atoms: _412  and  _413
REMARK  166  A    between atoms: _418  and  _419
REMARK  167  A    between atoms: _421  and  _423
REMARK  168  A    between atoms: _423  and  _424
REMARK  169  A    between atoms: _423  and  _426
REMARK  170  A    between atoms: _426  and  _427
REMARK  171  A    between atoms: _430  and  _432
REMARK  172  A    between atoms: _432  and  _433
REMARK  173  A    between atoms: _432  and  _435
REMARK  174  A    between atoms: _435  and  _436
REMARK  175  A    between atoms: _442  and  _444
REMARK  176  A    between atoms: _444  and  _445
REMARK  177  A    between atoms: _444  and  _447
REMARK  178  A    between atoms: _447  and  _448
REMARK  179  A    between atoms: _448  and  _449
REMARK  180  A    between atoms: _454  and  _456
REMARK  181  A    between atoms: _456  and  _457
REMARK  182  A    between atoms: _456  and  _459
REMARK  183  A    between atoms: _459  and  _460
REMARK  184  A    between atoms: _463  and  _465
REMARK  185  A    between atoms: _465  and  _466
REMARK  186  A    between atoms: _469  and  _471
REMARK  187  A    between atoms: _471  and  _472
REMARK  188  A    between atoms: _471  and  _474
REMARK  189  A    between atoms: _474  and  _475
REMARK  190  A    between atoms: _475  and  _476
REMARK  191  A    between atoms: _478  and  _480
REMARK  192  A    between atoms: _480  and  _481
REMARK  193  A    between atoms: _480  and  _483
REMARK  194  A    between atoms: _483  and  _484
REMARK  195  A    between atoms: _489  and  _490
REMARK  196  A    between atoms: _492  and  _494
REMARK  197  A    between atoms: _494  and  _495
REMARK  198  A    between atoms: _497  and  _499
REMARK  199  A    between atoms: _499  and  _500
REMARK  200  A    between atoms: _499  and  _502
REMARK  201  A    between atoms: _502  and  _503
REMARK  202  A    between atoms: _503  and  _504
REMARK  203  A    between atoms: _504  and  _505
REMARK  204  A    between atoms: _514  and  _516
REMARK  205  A    between atoms: _516  and  _517
REMARK  206  A    between atoms: _516  and  _519
REMARK  207  A    between atoms: _519  and  _520
REMARK  208  A    between atoms: _530  and  _532
REMARK  209  A    between atoms: _532  and  _533
REMARK  210  A    between atoms: _532  and  _535
REMARK  211  A    between atoms: _535  and  _536
REMARK  212  A    between atoms: _536  and  _537
REMARK  213  A    between atoms: _540  and  _542
REMARK  214  A    between atoms: _542  and  _543
REMARK  215  A    between atoms: _542  and  _545
REMARK  216  A    between atoms: _545  and  _546
REMARK  217  A    between atoms: _551  and  _553
REMARK  218  A    between atoms: _553  and  _554
REMARK  219  A    between atoms: _556  and  _558
REMARK  220  A    between atoms: _558  and  _559
REMARK  221  A    between atoms: _558  and  _561
REMARK  222  A    between atoms: _561  and  _562
REMARK  223  A    between atoms: _565  and  _567
REMARK  224  A    between atoms: _567  and  _568
REMARK  225  A    between atoms: _567  and  _570
REMARK  226  A    between atoms: _573  and  _575
REMARK  227  A    between atoms: _575  and  _576
REMARK  228  A    between atoms: _575  and  _578
REMARK  229  A    between atoms: _578  and  _579
REMARK  230  A    between atoms: _582  and  _584
REMARK  231  A    between atoms: _584  and  _585
REMARK  232  A    between atoms: _584  and  _587
REMARK  233  A    between atoms: _587  and  _588
REMARK  234  A    between atoms: _594  and  _596
REMARK  235  A    between atoms: _596  and  _597
REMARK  236  A    between atoms: _596  and  _599
REMARK  237  A    between atoms: _599  and  _600
REMARK  238  A    between atoms: _602  and  _604
REMARK  239  A    between atoms: _604  and  _605
REMARK  240  A    between atoms: _604  and  _607
REMARK  241  A    between atoms: _607  and  _608
REMARK  242  A    between atoms: _618  and  _620
REMARK  243  A    between atoms: _620  and  _621
REMARK  244  A    between atoms: _620  and  _623
REMARK  245  A    between atoms: _623  and  _624
REMARK  246  A    between atoms: _624  and  _625
REMARK  247  A    between atoms: _628  and  _630
REMARK  248  A    between atoms: _630  and  _631
REMARK  249  A    between atoms: _630  and  _633
REMARK  250  A    between atoms: _633  and  _634
REMARK  251  A    between atoms: _637  and  _639
REMARK  252  A    between atoms: _639  and  _640
REMARK                            x       y       z     vdW  Elec       q    Type
REMARK                         _______ _______ _______ _____ _____    ______ ____
ROOT
ATOM      1  O   HOH     1      39.872  64.897  -3.896  0.00  0.00    +0.000 OA
ENDROOT
TORSDOF 0
REMARK  Name = ../refined-set-2016/2wm0/2wm0_pocket.pdb
REMARK  252 active torsions:
REMARK  status: ('A' for Active; 'I' for Inactive)
REMARK    1  A    between atoms: _1  and  _3
REMARK    2  A    between atoms: _3  and  _4
REMARK    3  A    between atoms: _3  and  _6
REMARK    4  A    between atoms: _6  and  _7
REMARK    5  A    between atoms: _12  and  _13
REMARK    6  A    between atoms: _15  and  _17
REMARK    7  A    between atoms: _17  and  _18
REMARK    8  A    between atoms: _17  and  _20
REMARK    9  A    between atoms: _23  and  _25
REMARK   10  A    between atoms: _25  and  _26
REMARK   11  A    between atoms: _25  and  _28
REMARK   12  A    between atoms: _28  and  _29
REMARK   13  A    between atoms: _29  and  _30
REMARK   14  A    between atoms: _33  and  _35
REMARK   15  A    between atoms: _35  and  _36
REMARK   16  A    between atoms: _35  and  _38
REMARK   17  A    between atoms: _38  and  _39
REMARK   18  A    between atoms: _49  and  _51
REMARK   19  A    between atoms: _51  and  _52
REMARK   20  A    between atoms: _54  and  _56
REMARK   21  A    between atoms: _56  and  _57
REMARK   22  A    between atoms: _56  and  _59
REMARK   23  A    between atoms: _59  and  _60
REMARK   24  A    between atoms: _65  and  _66
REMARK   25  A    between atoms: _68  and  _70
REMARK   26  A    between atoms: _70  and  _71
REMARK   27  A    between atoms: _73  and  _75
REMARK   28  A    between atoms: _75  and  _76
REMARK   29  A    between atoms: _75  and  _78
REMARK   30  A    between atoms: _78  and  _79
REMARK   31  A    between atoms: _79  and  _80
REMARK   32  A    between atoms: _80  and  _81
REMARK   33  A    between atoms: _90  and  _92
REMARK   34  A    between atoms: _92  and  _93
REMARK   35  A    between atoms: _92  and  _95
REMARK   36  A    between atoms: _95  and  _96
REMARK   37  A    between atoms: _99  and  _101
REMARK   38  A    between atoms: _101  and  _102
REMARK   39  A    between atoms: _104  and  _106
REMARK   40  A    between atoms: _106  and  _107
REMARK   41  A    between atoms: _106  and  _109
REMARK   42  A    between atoms: _109  and  _110
REMARK   43  A    between atoms: _116  and  _118
REMARK   44  A    between atoms: _118  and  _119
REMARK   45  A    between atoms: _118  and  _121
REMARK   46  A    between atoms: _121  and  _122
REMARK   47  A    between atoms: _126  and  _127
REMARK   48  A    between atoms: _132  and  _134
REMARK   49  A    between atoms: _134  and  _135
REMARK   50  A    between atoms: _134  and  _137
REMARK   51  A    between atoms: _137  and  _138
REMARK   52  A    between atoms: _140  and  _142
REMARK   53  A    between atoms: _142  and  _143
REMARK   54  A    between atoms: _142  and  _145
REMARK   55  A    between atoms: _145  and  _146
REMARK   56  A    between atoms: _149  and  _151
REMARK   57  A    between atoms: _151  and  _152
REMARK   58  A    between atoms: _151  and  _154
REMARK   59  A    between atoms: _154  and  _155
REMARK   60  A    between atoms: _155  and  _156
REMARK   61  A    between atoms: _159  and  _161
REMARK   62  A    between atoms: _161  and  _162
REMARK   63  A    between atoms: _161  and  _164
REMARK   64  A    between atoms: _164  and  _165
REMARK   65  A    between atoms: _168  and  _170
REMARK   66  A    between atoms: _170  and  _171
REMARK   67  A    between atoms: _170  and  _173
REMARK   68  A    between atoms: _173  and  _174
REMARK   69  A    between atoms: _174  and  _175
REMARK   70  A    between atoms: _178  and  _180
REMARK   71  A    between atoms: _180  and  _181
REMARK   72  A    between atoms: _183  and  _185
REMARK   73  A    between atoms: _185  and  _186
REMARK   74  A    between atoms: _185  and  _188
REMARK   75  A    between atoms: _188  and  _189
REMARK   76  A    between atoms: _191  and  _193
REMARK   77  A    between atoms: _193  and  _194
REMARK   78  A    between atoms: _193  and  _196
REMARK   79  A    between atoms: _196  and  _197
REMARK   80  A    between atoms: _203  and  _205
REMARK   81  A    between atoms: _205  and  _206
REMARK   82  A    between atoms: _205  and  _208
REMARK   83  A    between atoms: _208  and  _209
REMARK   84  A    between atoms: _214  and  _216
REMARK   85  A    between atoms: _216  and  _217
REMARK   86  A    between atoms: _216  and  _219
REMARK   87  A    between atoms: _219  and  _220
REMARK   88  A    between atoms: _223  and  _225
REMARK   89  A    between atoms: _225  and  _226
REMARK   90  A    between atoms: _225  and  _228
REMARK   91  A    between atoms: _228  and  _229
REMARK   92  A    between atoms: _231  and  _233
REMARK   93  A    between atoms: _233  and  _234
REMARK   94  A    between atoms: _233  and  _236
REMARK   95  A    between atoms: _236  and  _237
REMARK   96  A    between atoms: _240  and  _242
REMARK   97  A    between atoms: _242  and  _243
REMARK   98  A    between atoms: _245  and  _247
REMARK   99  A    between atoms: _247  and  _248
REMARK  100  A    between atoms: _250  and  _252
REMARK  101  A    between atoms: _252  and  _253
REMARK  102  A    between atoms: _252  and  _255
REMARK  103  A    between atoms: _255  and  _256
REMARK  104  A    between atoms: _266  and  _268
REMARK  105  A    between atoms: _268  and  _269
REMARK  106  A    between atoms: _268  and  _271
REMARK  107  A    between atoms: _271  and  _272
REMARK  108  A    between atoms: _275  and  _277
REMARK  109  A    between atoms: _277  and  _278
REMARK  110  A    between atoms: _277  and  _280
REMARK  111  A    between atoms: _280  and  _281
REMARK  112  A    between atoms: _284  and  _286
REMARK  113  A    between atoms: _286  and  _287
REMARK  114  A    between atoms: _286  and  _289
REMARK  115  A    between atoms: _289  and  _290
REMARK  116  A    between atoms: _292  and  _294
REMARK  117  A    between atoms: _294  and  _295
REMARK  118  A    between atoms: _294  and  _297
REMARK  119  A    between atoms: _297  and  _298
REMARK  120  A    between atoms: _301  and  _303
REMARK  121  A    between atoms: _303  and  _304
REMARK  122  A    between atoms: _303  and  _306
REMARK  123  A    between atoms: _306  and  _307
REMARK  124  A    between atoms: _310  and  _312
REMARK  125  A    between atoms: _312  and  _313
REMARK  126  A    between atoms: _312  and  _315
REMARK  127  A    between atoms: _315  and  _316
REMARK  128  A    between atoms: _319  and  _321
REMARK  129  A    between atoms: _321  and  _322
REMARK  130  A    between atoms: _321  and  _324
REMARK  131  A    between atoms: _324  and  _325
REMARK  132  A    between atoms: _335  and  _337
REMARK  133  A    between atoms: _337  and  _338
REMARK  134  A    between atoms: _337  and  _340
REMARK  135  A    between atoms: _340  and  _341
REMARK  136  A    between atoms: _341  and  _342
REMARK  137  A    between atoms: _345  and  _347
REMARK  138  A    between atoms: _347  and  _348
REMARK  139  A    between atoms: _347  and  _350
REMARK  140  A    between atoms: _350  and  _351
REMARK  141  A    between atoms: _357  and  _359
REMARK  142  A    between atoms: _359  and  _360
REMARK  143  A    between atoms: _363  and  _365
REMARK  144  A    between atoms: _365  and  _366
REMARK  145  A    between atoms: _365  and  _368
REMARK  146  A    between atoms: _368  and  _369
REMARK  147  A    between atoms: _371  and  _373
REMARK  148  A    between atoms: _373  and  _374
REMARK  149  A    between atoms: _377  and  _379
REMARK  150  A    between atoms: _379  and  _380
REMARK  151  A    between atoms: _379  and  _382
REMARK  152  A    between atoms: _382  and  _383
REMARK  153  A    between atoms: _386  and  _388
REMARK  154  A    between atoms: _388  and  _389
REMARK  155  A    between atoms: _388  and  _391
REMARK  156  A    between atoms: _391  and  _392
REMARK  157  A    between atoms: _398  and  _400
REMARK  158  A    between atoms: _400  and  _401
REMARK  159  A    between atoms: _400  and  _403
REMARK  160  A    between atoms: _403  and  _404
REMARK  161  A    between atoms: _404  and  _405
REMARK  162  A    between atoms: _407  and  _409
REMARK  163  A    between atoms: _409  and  _410
REMARK  164  A    between atoms: _409  and  _412
REMARK  165  A    between atoms: _412  and  _413
REMARK  166  A    between atoms: _418  and  _419
REMARK  167  A    between atoms: _421  and  _423
REMARK  168  A    between atoms: _423  and  _424
REMARK  169  A    between atoms: _423  and  _426
REMARK  170  A    between atoms: _426  and  _427
REMARK  171  A    between atoms: _430  and  _432
REMARK  172  A    between atoms: _432  and  _433
REMARK  173  A    between atoms: _432  and  _435
REMARK  174  A    between atoms: _435  and  _436
REMARK  175  A    between atoms: _442  and  _444
REMARK  176  A    between atoms: _444  and  _445
REMARK  177  A    between atoms: _444  and  _447
REMARK  178  A    between atoms: _447  and  _448
REMARK  179  A    between atoms: _448  and  _449
REMARK  180  A    between atoms: _454  and  _456
REMARK  181  A    between atoms: _456  and  _457
REMARK  182  A    between atoms: _456  and  _459
REMARK  183  A    between atoms: _459  and  _460
REMARK  184  A    between atoms: _463  and  _465
REMARK  185  A    between atoms: _465  and  _466
REMARK  186  A    between atoms: _469  and  _471
REMARK  187  A    between atoms: _471  and  _472
REMARK  188  A    between atoms: _471  and  _474
REMARK  189  A    between atoms: _474  and  _475
REMARK  190  A    between atoms: _475  and  _476
REMARK  191  A    between atoms: _478  and  _480
REMARK  192  A    between atoms: _480  and  _481
REMARK  193  A    between atoms: _480  and  _483
REMARK  194  A    between atoms: _483  and  _484
REMARK  195  A    between atoms: _489  and  _490
REMARK  196  A    between atoms: _492  and  _494
REMARK  197  A    between atoms: _494  and  _495
REMARK  198  A    between atoms: _497  and  _499
REMARK  199  A    between atoms: _499  and  _500
REMARK  200  A    between atoms: _499  and  _502
REMARK  201  A    between atoms: _502  and  _503
REMARK  202  A    between atoms: _503  and  _504
REMARK  203  A    between atoms: _504  and  _505
REMARK  204  A    between atoms: _514  and  _516
REMARK  205  A    between atoms: _516  and  _517
REMARK  206  A    between atoms: _516  and  _519
REMARK  207  A    between atoms: _519  and  _520
REMARK  208  A    between atoms: _530  and  _532
REMARK  209  A    between atoms: _532  and  _533
REMARK  210  A    between atoms: _532  and  _535
REMARK  211  A    between atoms: _535  and  _536
REMARK  212  A    between atoms: _536  and  _537
REMARK  213  A    between atoms: _540  and  _542
REMARK  214  A    between atoms: _542  and  _543
REMARK  215  A    between atoms: _542  and  _545
REMARK  216  A    between atoms: _545  and  _546
REMARK  217  A    between atoms: _551  and  _553
REMARK  218  A    between atoms: _553  and  _554
REMARK  219  A    between atoms: _556  and  _558
REMARK  220  A    between atoms: _558  and  _559
REMARK  221  A    between atoms: _558  and  _561
REMARK  222  A    between atoms: _561  and  _562
REMARK  223  A    between atoms: _565  and  _567
REMARK  224  A    between atoms: _567  and  _568
REMARK  225  A    between atoms: _567  and  _570
REMARK  226  A    between atoms: _573  and  _575
REMARK  227  A    between atoms: _575  and  _576
REMARK  228  A    between atoms: _575  and  _578
REMARK  229  A    between atoms: _578  and  _579
REMARK  230  A    between atoms: _582  and  _584
REMARK  231  A    between atoms: _584  and  _585
REMARK  232  A    between atoms: _584  and  _587
REMARK  233  A    between atoms: _587  and  _588
REMARK  234  A    between atoms: _594  and  _596
REMARK  235  A    between atoms: _596  and  _597
REMARK  236  A    between atoms: _596  and  _599
REMARK  237  A    between atoms: _599  and  _600
REMARK  238  A    between atoms: _602  and  _604
REMARK  239  A    between atoms: _604  and  _605
REMARK  240  A    between atoms: _604  and  _607
REMARK  241  A    between atoms: _607  and  _608
REMARK  242  A    between atoms: _618  and  _620
REMARK  243  A    between atoms: _620  and  _621
REMARK  244  A    between atoms: _620  and  _623
REMARK  245  A    between atoms: _623  and  _624
REMARK  246  A    between atoms: _624  and  _625
REMARK  247  A    between atoms: _628  and  _630
REMARK  248  A    between atoms: _630  and  _631
REMARK  249  A    between atoms: _630  and  _633
REMARK  250  A    between atoms: _633  and  _634
REMARK  251  A    between atoms: _637  and  _639
REMARK  252  A    between atoms: _639  and  _640
REMARK                            x       y       z     vdW  Elec       q    Type
REMARK                         _______ _______ _______ _____ _____    ______ ____
ROOT
ATOM      1  O   HOH     1      36.491  66.579  -9.610  0.00  0.00    +0.000 OA
ENDROOT
TORSDOF 0
REMARK  Name = ../refined-set-2016/2wm0/2wm0_pocket.pdb
REMARK  252 active torsions:
REMARK  status: ('A' for Active; 'I' for Inactive)
REMARK    1  A    between atoms: _1  and  _3
REMARK    2  A    between atoms: _3  and  _4
REMARK    3  A    between atoms: _3  and  _6
REMARK    4  A    between atoms: _6  and  _7
REMARK    5  A    between atoms: _12  and  _13
REMARK    6  A    between atoms: _15  and  _17
REMARK    7  A    between atoms: _17  and  _18
REMARK    8  A    between atoms: _17  and  _20
REMARK    9  A    between atoms: _23  and  _25
REMARK   10  A    between atoms: _25  and  _26
REMARK   11  A    between atoms: _25  and  _28
REMARK   12  A    between atoms: _28  and  _29
REMARK   13  A    between atoms: _29  and  _30
REMARK   14  A    between atoms: _33  and  _35
REMARK   15  A    between atoms: _35  and  _36
REMARK   16  A    between atoms: _35  and  _38
REMARK   17  A    between atoms: _38  and  _39
REMARK   18  A    between atoms: _49  and  _51
REMARK   19  A    between atoms: _51  and  _52
REMARK   20  A    between atoms: _54  and  _56
REMARK   21  A    between atoms: _56  and  _57
REMARK   22  A    between atoms: _56  and  _59
REMARK   23  A    between atoms: _59  and  _60
REMARK   24  A    between atoms: _65  and  _66
REMARK   25  A    between atoms: _68  and  _70
REMARK   26  A    between atoms: _70  and  _71
REMARK   27  A    between atoms: _73  and  _75
REMARK   28  A    between atoms: _75  and  _76
REMARK   29  A    between atoms: _75  and  _78
REMARK   30  A    between atoms: _78  and  _79
REMARK   31  A    between atoms: _79  and  _80
REMARK   32  A    between atoms: _80  and  _81
REMARK   33  A    between atoms: _90  and  _92
REMARK   34  A    between atoms: _92  and  _93
REMARK   35  A    between atoms: _92  and  _95
REMARK   36  A    between atoms: _95  and  _96
REMARK   37  A    between atoms: _99  and  _101
REMARK   38  A    between atoms: _101  and  _102
REMARK   39  A    between atoms: _104  and  _106
REMARK   40  A    between atoms: _106  and  _107
REMARK   41  A    between atoms: _106  and  _109
REMARK   42  A    between atoms: _109  and  _110
REMARK   43  A    between atoms: _116  and  _118
REMARK   44  A    between atoms: _118  and  _119
REMARK   45  A    between atoms: _118  and  _121
REMARK   46  A    between atoms: _121  and  _122
REMARK   47  A    between atoms: _126  and  _127
REMARK   48  A    between atoms: _132  and  _134
REMARK   49  A    between atoms: _134  and  _135
REMARK   50  A    between atoms: _134  and  _137
REMARK   51  A    between atoms: _137  and  _138
REMARK   52  A    between atoms: _140  and  _142
REMARK   53  A    between atoms: _142  and  _143
REMARK   54  A    between atoms: _142  and  _145
REMARK   55  A    between atoms: _145  and  _146
REMARK   56  A    between atoms: _149  and  _151
REMARK   57  A    between atoms: _151  and  _152
REMARK   58  A    between atoms: _151  and  _154
REMARK   59  A    between atoms: _154  and  _155
REMARK   60  A    between atoms: _155  and  _156
REMARK   61  A    between atoms: _159  and  _161
REMARK   62  A    between atoms: _161  and  _162
REMARK   63  A    between atoms: _161  and  _164
REMARK   64  A    between atoms: _164  and  _165
REMARK   65  A    between atoms: _168  and  _170
REMARK   66  A    between atoms: _170  and  _171
REMARK   67  A    between atoms: _170  and  _173
REMARK   68  A    between atoms: _173  and  _174
REMARK   69  A    between atoms: _174  and  _175
REMARK   70  A    between atoms: _178  and  _180
REMARK   71  A    between atoms: _180  and  _181
REMARK   72  A    between atoms: _183  and  _185
REMARK   73  A    between atoms: _185  and  _186
REMARK   74  A    between atoms: _185  and  _188
REMARK   75  A    between atoms: _188  and  _189
REMARK   76  A    between atoms: _191  and  _193
REMARK   77  A    between atoms: _193  and  _194
REMARK   78  A    between atoms: _193  and  _196
REMARK   79  A    between atoms: _196  and  _197
REMARK   80  A    between atoms: _203  and  _205
REMARK   81  A    between atoms: _205  and  _206
REMARK   82  A    between atoms: _205  and  _208
REMARK   83  A    between atoms: _208  and  _209
REMARK   84  A    between atoms: _214  and  _216
REMARK   85  A    between atoms: _216  and  _217
REMARK   86  A    between atoms: _216  and  _219
REMARK   87  A    between atoms: _219  and  _220
REMARK   88  A    between atoms: _223  and  _225
REMARK   89  A    between atoms: _225  and  _226
REMARK   90  A    between atoms: _225  and  _228
REMARK   91  A    between atoms: _228  and  _229
REMARK   92  A    between atoms: _231  and  _233
REMARK   93  A    between atoms: _233  and  _234
REMARK   94  A    between atoms: _233  and  _236
REMARK   95  A    between atoms: _236  and  _237
REMARK   96  A    between atoms: _240  and  _242
REMARK   97  A    between atoms: _242  and  _243
REMARK   98  A    between atoms: _245  and  _247
REMARK   99  A    between atoms: _247  and  _248
REMARK  100  A    between atoms: _250  and  _252
REMARK  101  A    between atoms: _252  and  _253
REMARK  102  A    between atoms: _252  and  _255
REMARK  103  A    between atoms: _255  and  _256
REMARK  104  A    between atoms: _266  and  _268
REMARK  105  A    between atoms: _268  and  _269
REMARK  106  A    between atoms: _268  and  _271
REMARK  107  A    between atoms: _271  and  _272
REMARK  108  A    between atoms: _275  and  _277
REMARK  109  A    between atoms: _277  and  _278
REMARK  110  A    between atoms: _277  and  _280
REMARK  111  A    between atoms: _280  and  _281
REMARK  112  A    between atoms: _284  and  _286
REMARK  113  A    between atoms: _286  and  _287
REMARK  114  A    between atoms: _286  and  _289
REMARK  115  A    between atoms: _289  and  _290
REMARK  116  A    between atoms: _292  and  _294
REMARK  117  A    between atoms: _294  and  _295
REMARK  118  A    between atoms: _294  and  _297
REMARK  119  A    between atoms: _297  and  _298
REMARK  120  A    between atoms: _301  and  _303
REMARK  121  A    between atoms: _303  and  _304
REMARK  122  A    between atoms: _303  and  _306
REMARK  123  A    between atoms: _306  and  _307
REMARK  124  A    between atoms: _310  and  _312
REMARK  125  A    between atoms: _312  and  _313
REMARK  126  A    between atoms: _312  and  _315
REMARK  127  A    between atoms: _315  and  _316
REMARK  128  A    between atoms: _319  and  _321
REMARK  129  A    between atoms: _321  and  _322
REMARK  130  A    between atoms: _321  and  _324
REMARK  131  A    between atoms: _324  and  _325
REMARK  132  A    between atoms: _335  and  _337
REMARK  133  A    between atoms: _337  and  _338
REMARK  134  A    between atoms: _337  and  _340
REMARK  135  A    between atoms: _340  and  _341
REMARK  136  A    between atoms: _341  and  _342
REMARK  137  A    between atoms: _345  and  _347
REMARK  138  A    between atoms: _347  and  _348
REMARK  139  A    between atoms: _347  and  _350
REMARK  140  A    between atoms: _350  and  _351
REMARK  141  A    between atoms: _357  and  _359
REMARK  142  A    between atoms: _359  and  _360
REMARK  143  A    between atoms: _363  and  _365
REMARK  144  A    between atoms: _365  and  _366
REMARK  145  A    between atoms: _365  and  _368
REMARK  146  A    between atoms: _368  and  _369
REMARK  147  A    between atoms: _371  and  _373
REMARK  148  A    between atoms: _373  and  _374
REMARK  149  A    between atoms: _377  and  _379
REMARK  150  A    between atoms: _379  and  _380
REMARK  151  A    between atoms: _379  and  _382
REMARK  152  A    between atoms: _382  and  _383
REMARK  153  A    between atoms: _386  and  _388
REMARK  154  A    between atoms: _388  and  _389
REMARK  155  A    between atoms: _388  and  _391
REMARK  156  A    between atoms: _391  and  _392
REMARK  157  A    between atoms: _398  and  _400
REMARK  158  A    between atoms: _400  and  _401
REMARK  159  A    between atoms: _400  and  _403
REMARK  160  A    between atoms: _403  and  _404
REMARK  161  A    between atoms: _404  and  _405
REMARK  162  A    between atoms: _407  and  _409
REMARK  163  A    between atoms: _409  and  _410
REMARK  164  A    between atoms: _409  and  _412
REMARK  165  A    between atoms: _412  and  _413
REMARK  166  A    between atoms: _418  and  _419
REMARK  167  A    between atoms: _421  and  _423
REMARK  168  A    between atoms: _423  and  _424
REMARK  169  A    between atoms: _423  and  _426
REMARK  170  A    between atoms: _426  and  _427
REMARK  171  A    between atoms: _430  and  _432
REMARK  172  A    between atoms: _432  and  _433
REMARK  173  A    between atoms: _432  and  _435
REMARK  174  A    between atoms: _435  and  _436
REMARK  175  A    between atoms: _442  and  _444
REMARK  176  A    between atoms: _444  and  _445
REMARK  177  A    between atoms: _444  and  _447
REMARK  178  A    between atoms: _447  and  _448
REMARK  179  A    between atoms: _448  and  _449
REMARK  180  A    between atoms: _454  and  _456
REMARK  181  A    between atoms: _456  and  _457
REMARK  182  A    between atoms: _456  and  _459
REMARK  183  A    between atoms: _459  and  _460
REMARK  184  A    between atoms: _463  and  _465
REMARK  185  A    between atoms: _465  and  _466
REMARK  186  A    between atoms: _469  and  _471
REMARK  187  A    between atoms: _471  and  _472
REMARK  188  A    between atoms: _471  and  _474
REMARK  189  A    between atoms: _474  and  _475
REMARK  190  A    between atoms: _475  and  _476
REMARK  191  A    between atoms: _478  and  _480
REMARK  192  A    between atoms: _480  and  _481
REMARK  193  A    between atoms: _480  and  _483
REMARK  194  A    between atoms: _483  and  _484
REMARK  195  A    between atoms: _489  and  _490
REMARK  196  A    between atoms: _492  and  _494
REMARK  197  A    between atoms: _494  and  _495
REMARK  198  A    between atoms: _497  and  _499
REMARK  199  A    between atoms: _499  and  _500
REMARK  200  A    between atoms: _499  and  _502
REMARK  201  A    between atoms: _502  and  _503
REMARK  202  A    between atoms: _503  and  _504
REMARK  203  A    between atoms: _504  and  _505
REMARK  204  A    between atoms: _514  and  _516
REMARK  205  A    between atoms: _516  and  _517
REMARK  206  A    between atoms: _516  and  _519
REMARK  207  A    between atoms: _519  and  _520
REMARK  208  A    between atoms: _530  and  _532
REMARK  209  A    between atoms: _532  and  _533
REMARK  210  A    between atoms: _532  and  _535
REMARK  211  A    between atoms: _535  and  _536
REMARK  212  A    between atoms: _536  and  _537
REMARK  213  A    between atoms: _540  and  _542
REMARK  214  A    between atoms: _542  and  _543
REMARK  215  A    between atoms: _542  and  _545
REMARK  216  A    between atoms: _545  and  _546
REMARK  217  A    between atoms: _551  and  _553
REMARK  218  A    between atoms: _553  and  _554
REMARK  219  A    between atoms: _556  and  _558
REMARK  220  A    between atoms: _558  and  _559
REMARK  221  A    between atoms: _558  and  _561
REMARK  222  A    between atoms: _561  and  _562
REMARK  223  A    between atoms: _565  and  _567
REMARK  224  A    between atoms: _567  and  _568
REMARK  225  A    between atoms: _567  and  _570
REMARK  226  A    between atoms: _573  and  _575
REMARK  227  A    between atoms: _575  and  _576
REMARK  228  A    between atoms: _575  and  _578
REMARK  229  A    between atoms: _578  and  _579
REMARK  230  A    between atoms: _582  and  _584
REMARK  231  A    between atoms: _584  and  _585
REMARK  232  A    between atoms: _584  and  _587
REMARK  233  A    between atoms: _587  and  _588
REMARK  234  A    between atoms: _594  and  _596
REMARK  235  A    between atoms: _596  and  _597
REMARK  236  A    between atoms: _596  and  _599
REMARK  237  A    between atoms: _599  and  _600
REMARK  238  A    between atoms: _602  and  _604
REMARK  239  A    between atoms: _604  and  _605
REMARK  240  A    between atoms: _604  and  _607
REMARK  241  A    between atoms: _607  and  _608
REMARK  242  A    between atoms: _618  and  _620
REMARK  243  A    between atoms: _620  and  _621
REMARK  244  A    between atoms: _620  and  _623
REMARK  245  A    between atoms: _623  and  _624
REMARK  246  A    between atoms: _624  and  _625
REMARK  247  A    between atoms: _628  and  _630
REMARK  248  A    between atoms: _630  and  _631
REMARK  249  A    between atoms: _630  and  _633
REMARK  250  A    between atoms: _633  and  _634
REMARK  251  A    between atoms: _637  and  _639
REMARK  252  A    between atoms: _639  and  _640
REMARK                            x       y       z     vdW  Elec       q    Type
REMARK                         _______ _______ _______ _____ _____    ______ ____
ROOT
ATOM      1  O   HOH     1      38.440  68.490 -10.918  0.00  0.00    +0.000 OA
ENDROOT
TORSDOF 0
REMARK  Name = ../refined-set-2016/2wm0/2wm0_pocket.pdb
REMARK  252 active torsions:
REMARK  status: ('A' for Active; 'I' for Inactive)
REMARK    1  A    between atoms: _1  and  _3
REMARK    2  A    between atoms: _3  and  _4
REMARK    3  A    between atoms: _3  and  _6
REMARK    4  A    between atoms: _6  and  _7
REMARK    5  A    between atoms: _12  and  _13
REMARK    6  A    between atoms: _15  and  _17
REMARK    7  A    between atoms: _17  and  _18
REMARK    8  A    between atoms: _17  and  _20
REMARK    9  A    between atoms: _23  and  _25
REMARK   10  A    between atoms: _25  and  _26
REMARK   11  A    between atoms: _25  and  _28
REMARK   12  A    between atoms: _28  and  _29
REMARK   13  A    between atoms: _29  and  _30
REMARK   14  A    between atoms: _33  and  _35
REMARK   15  A    between atoms: _35  and  _36
REMARK   16  A    between atoms: _35  and  _38
REMARK   17  A    between atoms: _38  and  _39
REMARK   18  A    between atoms: _49  and  _51
REMARK   19  A    between atoms: _51  and  _52
REMARK   20  A    between atoms: _54  and  _56
REMARK   21  A    between atoms: _56  and  _57
REMARK   22  A    between atoms: _56  and  _59
REMARK   23  A    between atoms: _59  and  _60
REMARK   24  A    between atoms: _65  and  _66
REMARK   25  A    between atoms: _68  and  _70
REMARK   26  A    between atoms: _70  and  _71
REMARK   27  A    between atoms: _73  and  _75
REMARK   28  A    between atoms: _75  and  _76
REMARK   29  A    between atoms: _75  and  _78
REMARK   30  A    between atoms: _78  and  _79
REMARK   31  A    between atoms: _79  and  _80
REMARK   32  A    between atoms: _80  and  _81
REMARK   33  A    between atoms: _90  and  _92
REMARK   34  A    between atoms: _92  and  _93
REMARK   35  A    between atoms: _92  and  _95
REMARK   36  A    between atoms: _95  and  _96
REMARK   37  A    between atoms: _99  and  _101
REMARK   38  A    between atoms: _101  and  _102
REMARK   39  A    between atoms: _104  and  _106
REMARK   40  A    between atoms: _106  and  _107
REMARK   41  A    between atoms: _106  and  _109
REMARK   42  A    between atoms: _109  and  _110
REMARK   43  A    between atoms: _116  and  _118
REMARK   44  A    between atoms: _118  and  _119
REMARK   45  A    between atoms: _118  and  _121
REMARK   46  A    between atoms: _121  and  _122
REMARK   47  A    between atoms: _126  and  _127
REMARK   48  A    between atoms: _132  and  _134
REMARK   49  A    between atoms: _134  and  _135
REMARK   50  A    between atoms: _134  and  _137
REMARK   51  A    between atoms: _137  and  _138
REMARK   52  A    between atoms: _140  and  _142
REMARK   53  A    between atoms: _142  and  _143
REMARK   54  A    between atoms: _142  and  _145
REMARK   55  A    between atoms: _145  and  _146
REMARK   56  A    between atoms: _149  and  _151
REMARK   57  A    between atoms: _151  and  _152
REMARK   58  A    between atoms: _151  and  _154
REMARK   59  A    between atoms: _154  and  _155
REMARK   60  A    between atoms: _155  and  _156
REMARK   61  A    between atoms: _159  and  _161
REMARK   62  A    between atoms: _161  and  _162
REMARK   63  A    between atoms: _161  and  _164
REMARK   64  A    between atoms: _164  and  _165
REMARK   65  A    between atoms: _168  and  _170
REMARK   66  A    between atoms: _170  and  _171
REMARK   67  A    between atoms: _170  and  _173
REMARK   68  A    between atoms: _173  and  _174
REMARK   69  A    between atoms: _174  and  _175
REMARK   70  A    between atoms: _178  and  _180
REMARK   71  A    between atoms: _180  and  _181
REMARK   72  A    between atoms: _183  and  _185
REMARK   73  A    between atoms: _185  and  _186
REMARK   74  A    between atoms: _185  and  _188
REMARK   75  A    between atoms: _188  and  _189
REMARK   76  A    between atoms: _191  and  _193
REMARK   77  A    between atoms: _193  and  _194
REMARK   78  A    between atoms: _193  and  _196
REMARK   79  A    between atoms: _196  and  _197
REMARK   80  A    between atoms: _203  and  _205
REMARK   81  A    between atoms: _205  and  _206
REMARK   82  A    between atoms: _205  and  _208
REMARK   83  A    between atoms: _208  and  _209
REMARK   84  A    between atoms: _214  and  _216
REMARK   85  A    between atoms: _216  and  _217
REMARK   86  A    between atoms: _216  and  _219
REMARK   87  A    between atoms: _219  and  _220
REMARK   88  A    between atoms: _223  and  _225
REMARK   89  A    between atoms: _225  and  _226
REMARK   90  A    between atoms: _225  and  _228
REMARK   91  A    between atoms: _228  and  _229
REMARK   92  A    between atoms: _231  and  _233
REMARK   93  A    between atoms: _233  and  _234
REMARK   94  A    between atoms: _233  and  _236
REMARK   95  A    between atoms: _236  and  _237
REMARK   96  A    between atoms: _240  and  _242
REMARK   97  A    between atoms: _242  and  _243
REMARK   98  A    between atoms: _245  and  _247
REMARK   99  A    between atoms: _247  and  _248
REMARK  100  A    between atoms: _250  and  _252
REMARK  101  A    between atoms: _252  and  _253
REMARK  102  A    between atoms: _252  and  _255
REMARK  103  A    between atoms: _255  and  _256
REMARK  104  A    between atoms: _266  and  _268
REMARK  105  A    between atoms: _268  and  _269
REMARK  106  A    between atoms: _268  and  _271
REMARK  107  A    between atoms: _271  and  _272
REMARK  108  A    between atoms: _275  and  _277
REMARK  109  A    between atoms: _277  and  _278
REMARK  110  A    between atoms: _277  and  _280
REMARK  111  A    between atoms: _280  and  _281
REMARK  112  A    between atoms: _284  and  _286
REMARK  113  A    between atoms: _286  and  _287
REMARK  114  A    between atoms: _286  and  _289
REMARK  115  A    between atoms: _289  and  _290
REMARK  116  A    between atoms: _292  and  _294
REMARK  117  A    between atoms: _294  and  _295
REMARK  118  A    between atoms: _294  and  _297
REMARK  119  A    between atoms: _297  and  _298
REMARK  120  A    between atoms: _301  and  _303
REMARK  121  A    between atoms: _303  and  _304
REMARK  122  A    between atoms: _303  and  _306
REMARK  123  A    between atoms: _306  and  _307
REMARK  124  A    between atoms: _310  and  _312
REMARK  125  A    between atoms: _312  and  _313
REMARK  126  A    between atoms: _312  and  _315
REMARK  127  A    between atoms: _315  and  _316
REMARK  128  A    between atoms: _319  and  _321
REMARK  129  A    between atoms: _321  and  _322
REMARK  130  A    between atoms: _321  and  _324
REMARK  131  A    between atoms: _324  and  _325
REMARK  132  A    between atoms: _335  and  _337
REMARK  133  A    between atoms: _337  and  _338
REMARK  134  A    between atoms: _337  and  _340
REMARK  135  A    between atoms: _340  and  _341
REMARK  136  A    between atoms: _341  and  _342
REMARK  137  A    between atoms: _345  and  _347
REMARK  138  A    between atoms: _347  and  _348
REMARK  139  A    between atoms: _347  and  _350
REMARK  140  A    between atoms: _350  and  _351
REMARK  141  A    between atoms: _357  and  _359
REMARK  142  A    between atoms: _359  and  _360
REMARK  143  A    between atoms: _363  and  _365
REMARK  144  A    between atoms: _365  and  _366
REMARK  145  A    between atoms: _365  and  _368
REMARK  146  A    between atoms: _368  and  _369
REMARK  147  A    between atoms: _371  and  _373
REMARK  148  A    between atoms: _373  and  _374
REMARK  149  A    between atoms: _377  and  _379
REMARK  150  A    between atoms: _379  and  _380
REMARK  151  A    between atoms: _379  and  _382
REMARK  152  A    between atoms: _382  and  _383
REMARK  153  A    between atoms: _386  and  _388
REMARK  154  A    between atoms: _388  and  _389
REMARK  155  A    between atoms: _388  and  _391
REMARK  156  A    between atoms: _391  and  _392
REMARK  157  A    between atoms: _398  and  _400
REMARK  158  A    between atoms: _400  and  _401
REMARK  159  A    between atoms: _400  and  _403
REMARK  160  A    between atoms: _403  and  _404
REMARK  161  A    between atoms: _404  and  _405
REMARK  162  A    between atoms: _407  and  _409
REMARK  163  A    between atoms: _409  and  _410
REMARK  164  A    between atoms: _409  and  _412
REMARK  165  A    between atoms: _412  and  _413
REMARK  166  A    between atoms: _418  and  _419
REMARK  167  A    between atoms: _421  and  _423
REMARK  168  A    between atoms: _423  and  _424
REMARK  169  A    between atoms: _423  and  _426
REMARK  170  A    between atoms: _426  and  _427
REMARK  171  A    between atoms: _430  and  _432
REMARK  172  A    between atoms: _432  and  _433
REMARK  173  A    between atoms: _432  and  _435
REMARK  174  A    between atoms: _435  and  _436
REMARK  175  A    between atoms: _442  and  _444
REMARK  176  A    between atoms: _444  and  _445
REMARK  177  A    between atoms: _444  and  _447
REMARK  178  A    between atoms: _447  and  _448
REMARK  179  A    between atoms: _448  and  _449
REMARK  180  A    between atoms: _454  and  _456
REMARK  181  A    between atoms: _456  and  _457
REMARK  182  A    between atoms: _456  and  _459
REMARK  183  A    between atoms: _459  and  _460
REMARK  184  A    between atoms: _463  and  _465
REMARK  185  A    between atoms: _465  and  _466
REMARK  186  A    between atoms: _469  and  _471
REMARK  187  A    between atoms: _471  and  _472
REMARK  188  A    between atoms: _471  and  _474
REMARK  189  A    between atoms: _474  and  _475
REMARK  190  A    between atoms: _475  and  _476
REMARK  191  A    between atoms: _478  and  _480
REMARK  192  A    between atoms: _480  and  _481
REMARK  193  A    between atoms: _480  and  _483
REMARK  194  A    between atoms: _483  and  _484
REMARK  195  A    between atoms: _489  and  _490
REMARK  196  A    between atoms: _492  and  _494
REMARK  197  A    between atoms: _494  and  _495
REMARK  198  A    between atoms: _497  and  _499
REMARK  199  A    between atoms: _499  and  _500
REMARK  200  A    between atoms: _499  and  _502
REMARK  201  A    between atoms: _502  and  _503
REMARK  202  A    between atoms: _503  and  _504
REMARK  203  A    between atoms: _504  and  _505
REMARK  204  A    between atoms: _514  and  _516
REMARK  205  A    between atoms: _516  and  _517
REMARK  206  A    between atoms: _516  and  _519
REMARK  207  A    between atoms: _519  and  _520
REMARK  208  A    between atoms: _530  and  _532
REMARK  209  A    between atoms: _532  and  _533
REMARK  210  A    between atoms: _532  and  _535
REMARK  211  A    between atoms: _535  and  _536
REMARK  212  A    between atoms: _536  and  _537
REMARK  213  A    between atoms: _540  and  _542
REMARK  214  A    between atoms: _542  and  _543
REMARK  215  A    between atoms: _542  and  _545
REMARK  216  A    between atoms: _545  and  _546
REMARK  217  A    between atoms: _551  and  _553
REMARK  218  A    between atoms: _553  and  _554
REMARK  219  A    between atoms: _556  and  _558
REMARK  220  A    between atoms: _558  and  _559
REMARK  221  A    between atoms: _558  and  _561
REMARK  222  A    between atoms: _561  and  _562
REMARK  223  A    between atoms: _565  and  _567
REMARK  224  A    between atoms: _567  and  _568
REMARK  225  A    between atoms: _567  and  _570
REMARK  226  A    between atoms: _573  and  _575
REMARK  227  A    between atoms: _575  and  _576
REMARK  228  A    between atoms: _575  and  _578
REMARK  229  A    between atoms: _578  and  _579
REMARK  230  A    between atoms: _582  and  _584
REMARK  231  A    between atoms: _584  and  _585
REMARK  232  A    between atoms: _584  and  _587
REMARK  233  A    between atoms: _587  and  _588
REMARK  234  A    between atoms: _594  and  _596
REMARK  235  A    between atoms: _596  and  _597
REMARK  236  A    between atoms: _596  and  _599
REMARK  237  A    between atoms: _599  and  _600
REMARK  238  A    between atoms: _602  and  _604
REMARK  239  A    between atoms: _604  and  _605
REMARK  240  A    between atoms: _604  and  _607
REMARK  241  A    between atoms: _607  and  _608
REMARK  242  A    between atoms: _618  and  _620
REMARK  243  A    between atoms: _620  and  _621
REMARK  244  A    between atoms: _620  and  _623
REMARK  245  A    between atoms: _623  and  _624
REMARK  246  A    between atoms: _624  and  _625
REMARK  247  A    between atoms: _628  and  _630
REMARK  248  A    between atoms: _630  and  _631
REMARK  249  A    between atoms: _630  and  _633
REMARK  250  A    between atoms: _633  and  _634
REMARK  251  A    between atoms: _637  and  _639
REMARK  252  A    between atoms: _639  and  _640
REMARK                            x       y       z     vdW  Elec       q    Type
REMARK                         _______ _______ _______ _____ _____    ______ ____
ROOT
ATOM      1  O   HOH     1      25.970  63.523  -1.978  0.00  0.00    +0.000 OA
ENDROOT
TORSDOF 0
REMARK  Name = ../refined-set-2016/2wm0/2wm0_pocket.pdb
REMARK  252 active torsions:
REMARK  status: ('A' for Active; 'I' for Inactive)
REMARK    1  A    between atoms: _1  and  _3
REMARK    2  A    between atoms: _3  and  _4
REMARK    3  A    between atoms: _3  and  _6
REMARK    4  A    between atoms: _6  and  _7
REMARK    5  A    between atoms: _12  and  _13
REMARK    6  A    between atoms: _15  and  _17
REMARK    7  A    between atoms: _17  and  _18
REMARK    8  A    between atoms: _17  and  _20
REMARK    9  A    between atoms: _23  and  _25
REMARK   10  A    between atoms: _25  and  _26
REMARK   11  A    between atoms: _25  and  _28
REMARK   12  A    between atoms: _28  and  _29
REMARK   13  A    between atoms: _29  and  _30
REMARK   14  A    between atoms: _33  and  _35
REMARK   15  A    between atoms: _35  and  _36
REMARK   16  A    between atoms: _35  and  _38
REMARK   17  A    between atoms: _38  and  _39
REMARK   18  A    between atoms: _49  and  _51
REMARK   19  A    between atoms: _51  and  _52
REMARK   20  A    between atoms: _54  and  _56
REMARK   21  A    between atoms: _56  and  _57
REMARK   22  A    between atoms: _56  and  _59
REMARK   23  A    between atoms: _59  and  _60
REMARK   24  A    between atoms: _65  and  _66
REMARK   25  A    between atoms: _68  and  _70
REMARK   26  A    between atoms: _70  and  _71
REMARK   27  A    between atoms: _73  and  _75
REMARK   28  A    between atoms: _75  and  _76
REMARK   29  A    between atoms: _75  and  _78
REMARK   30  A    between atoms: _78  and  _79
REMARK   31  A    between atoms: _79  and  _80
REMARK   32  A    between atoms: _80  and  _81
REMARK   33  A    between atoms: _90  and  _92
REMARK   34  A    between atoms: _92  and  _93
REMARK   35  A    between atoms: _92  and  _95
REMARK   36  A    between atoms: _95  and  _96
REMARK   37  A    between atoms: _99  and  _101
REMARK   38  A    between atoms: _101  and  _102
REMARK   39  A    between atoms: _104  and  _106
REMARK   40  A    between atoms: _106  and  _107
REMARK   41  A    between atoms: _106  and  _109
REMARK   42  A    between atoms: _109  and  _110
REMARK   43  A    between atoms: _116  and  _118
REMARK   44  A    between atoms: _118  and  _119
REMARK   45  A    between atoms: _118  and  _121
REMARK   46  A    between atoms: _121  and  _122
REMARK   47  A    between atoms: _126  and  _127
REMARK   48  A    between atoms: _132  and  _134
REMARK   49  A    between atoms: _134  and  _135
REMARK   50  A    between atoms: _134  and  _137
REMARK   51  A    between atoms: _137  and  _138
REMARK   52  A    between atoms: _140  and  _142
REMARK   53  A    between atoms: _142  and  _143
REMARK   54  A    between atoms: _142  and  _145
REMARK   55  A    between atoms: _145  and  _146
REMARK   56  A    between atoms: _149  and  _151
REMARK   57  A    between atoms: _151  and  _152
REMARK   58  A    between atoms: _151  and  _154
REMARK   59  A    between atoms: _154  and  _155
REMARK   60  A    between atoms: _155  and  _156
REMARK   61  A    between atoms: _159  and  _161
REMARK   62  A    between atoms: _161  and  _162
REMARK   63  A    between atoms: _161  and  _164
REMARK   64  A    between atoms: _164  and  _165
REMARK   65  A    between atoms: _168  and  _170
REMARK   66  A    between atoms: _170  and  _171
REMARK   67  A    between atoms: _170  and  _173
REMARK   68  A    between atoms: _173  and  _174
REMARK   69  A    between atoms: _174  and  _175
REMARK   70  A    between atoms: _178  and  _180
REMARK   71  A    between atoms: _180  and  _181
REMARK   72  A    between atoms: _183  and  _185
REMARK   73  A    between atoms: _185  and  _186
REMARK   74  A    between atoms: _185  and  _188
REMARK   75  A    between atoms: _188  and  _189
REMARK   76  A    between atoms: _191  and  _193
REMARK   77  A    between atoms: _193  and  _194
REMARK   78  A    between atoms: _193  and  _196
REMARK   79  A    between atoms: _196  and  _197
REMARK   80  A    between atoms: _203  and  _205
REMARK   81  A    between atoms: _205  and  _206
REMARK   82  A    between atoms: _205  and  _208
REMARK   83  A    between atoms: _208  and  _209
REMARK   84  A    between atoms: _214  and  _216
REMARK   85  A    between atoms: _216  and  _217
REMARK   86  A    between atoms: _216  and  _219
REMARK   87  A    between atoms: _219  and  _220
REMARK   88  A    between atoms: _223  and  _225
REMARK   89  A    between atoms: _225  and  _226
REMARK   90  A    between atoms: _225  and  _228
REMARK   91  A    between atoms: _228  and  _229
REMARK   92  A    between atoms: _231  and  _233
REMARK   93  A    between atoms: _233  and  _234
REMARK   94  A    between atoms: _233  and  _236
REMARK   95  A    between atoms: _236  and  _237
REMARK   96  A    between atoms: _240  and  _242
REMARK   97  A    between atoms: _242  and  _243
REMARK   98  A    between atoms: _245  and  _247
REMARK   99  A    between atoms: _247  and  _248
REMARK  100  A    between atoms: _250  and  _252
REMARK  101  A    between atoms: _252  and  _253
REMARK  102  A    between atoms: _252  and  _255
REMARK  103  A    between atoms: _255  and  _256
REMARK  104  A    between atoms: _266  and  _268
REMARK  105  A    between atoms: _268  and  _269
REMARK  106  A    between atoms: _268  and  _271
REMARK  107  A    between atoms: _271  and  _272
REMARK  108  A    between atoms: _275  and  _277
REMARK  109  A    between atoms: _277  and  _278
REMARK  110  A    between atoms: _277  and  _280
REMARK  111  A    between atoms: _280  and  _281
REMARK  112  A    between atoms: _284  and  _286
REMARK  113  A    between atoms: _286  and  _287
REMARK  114  A    between atoms: _286  and  _289
REMARK  115  A    between atoms: _289  and  _290
REMARK  116  A    between atoms: _292  and  _294
REMARK  117  A    between atoms: _294  and  _295
REMARK  118  A    between atoms: _294  and  _297
REMARK  119  A    between atoms: _297  and  _298
REMARK  120  A    between atoms: _301  and  _303
REMARK  121  A    between atoms: _303  and  _304
REMARK  122  A    between atoms: _303  and  _306
REMARK  123  A    between atoms: _306  and  _307
REMARK  124  A    between atoms: _310  and  _312
REMARK  125  A    between atoms: _312  and  _313
REMARK  126  A    between atoms: _312  and  _315
REMARK  127  A    between atoms: _315  and  _316
REMARK  128  A    between atoms: _319  and  _321
REMARK  129  A    between atoms: _321  and  _322
REMARK  130  A    between atoms: _321  and  _324
REMARK  131  A    between atoms: _324  and  _325
REMARK  132  A    between atoms: _335  and  _337
REMARK  133  A    between atoms: _337  and  _338
REMARK  134  A    between atoms: _337  and  _340
REMARK  135  A    between atoms: _340  and  _341
REMARK  136  A    between atoms: _341  and  _342
REMARK  137  A    between atoms: _345  and  _347
REMARK  138  A    between atoms: _347  and  _348
REMARK  139  A    between atoms: _347  and  _350
REMARK  140  A    between atoms: _350  and  _351
REMARK  141  A    between atoms: _357  and  _359
REMARK  142  A    between atoms: _359  and  _360
REMARK  143  A    between atoms: _363  and  _365
REMARK  144  A    between atoms: _365  and  _366
REMARK  145  A    between atoms: _365  and  _368
REMARK  146  A    between atoms: _368  and  _369
REMARK  147  A    between atoms: _371  and  _373
REMARK  148  A    between atoms: _373  and  _374
REMARK  149  A    between atoms: _377  and  _379
REMARK  150  A    between atoms: _379  and  _380
REMARK  151  A    between atoms: _379  and  _382
REMARK  152  A    between atoms: _382  and  _383
REMARK  153  A    between atoms: _386  and  _388
REMARK  154  A    between atoms: _388  and  _389
REMARK  155  A    between atoms: _388  and  _391
REMARK  156  A    between atoms: _391  and  _392
REMARK  157  A    between atoms: _398  and  _400
REMARK  158  A    between atoms: _400  and  _401
REMARK  159  A    between atoms: _400  and  _403
REMARK  160  A    between atoms: _403  and  _404
REMARK  161  A    between atoms: _404  and  _405
REMARK  162  A    between atoms: _407  and  _409
REMARK  163  A    between atoms: _409  and  _410
REMARK  164  A    between atoms: _409  and  _412
REMARK  165  A    between atoms: _412  and  _413
REMARK  166  A    between atoms: _418  and  _419
REMARK  167  A    between atoms: _421  and  _423
REMARK  168  A    between atoms: _423  and  _424
REMARK  169  A    between atoms: _423  and  _426
REMARK  170  A    between atoms: _426  and  _427
REMARK  171  A    between atoms: _430  and  _432
REMARK  172  A    between atoms: _432  and  _433
REMARK  173  A    between atoms: _432  and  _435
REMARK  174  A    between atoms: _435  and  _436
REMARK  175  A    between atoms: _442  and  _444
REMARK  176  A    between atoms: _444  and  _445
REMARK  177  A    between atoms: _444  and  _447
REMARK  178  A    between atoms: _447  and  _448
REMARK  179  A    between atoms: _448  and  _449
REMARK  180  A    between atoms: _454  and  _456
REMARK  181  A    between atoms: _456  and  _457
REMARK  182  A    between atoms: _456  and  _459
REMARK  183  A    between atoms: _459  and  _460
REMARK  184  A    between atoms: _463  and  _465
REMARK  185  A    between atoms: _465  and  _466
REMARK  186  A    between atoms: _469  and  _471
REMARK  187  A    between atoms: _471  and  _472
REMARK  188  A    between atoms: _471  and  _474
REMARK  189  A    between atoms: _474  and  _475
REMARK  190  A    between atoms: _475  and  _476
REMARK  191  A    between atoms: _478  and  _480
REMARK  192  A    between atoms: _480  and  _481
REMARK  193  A    between atoms: _480  and  _483
REMARK  194  A    between atoms: _483  and  _484
REMARK  195  A    between atoms: _489  and  _490
REMARK  196  A    between atoms: _492  and  _494
REMARK  197  A    between atoms: _494  and  _495
REMARK  198  A    between atoms: _497  and  _499
REMARK  199  A    between atoms: _499  and  _500
REMARK  200  A    between atoms: _499  and  _502
REMARK  201  A    between atoms: _502  and  _503
REMARK  202  A    between atoms: _503  and  _504
REMARK  203  A    between atoms: _504  and  _505
REMARK  204  A    between atoms: _514  and  _516
REMARK  205  A    between atoms: _516  and  _517
REMARK  206  A    between atoms: _516  and  _519
REMARK  207  A    between atoms: _519  and  _520
REMARK  208  A    between atoms: _530  and  _532
REMARK  209  A    between atoms: _532  and  _533
REMARK  210  A    between atoms: _532  and  _535
REMARK  211  A    between atoms: _535  and  _536
REMARK  212  A    between atoms: _536  and  _537
REMARK  213  A    between atoms: _540  and  _542
REMARK  214  A    between atoms: _542  and  _543
REMARK  215  A    between atoms: _542  and  _545
REMARK  216  A    between atoms: _545  and  _546
REMARK  217  A    between atoms: _551  and  _553
REMARK  218  A    between atoms: _553  and  _554
REMARK  219  A    between atoms: _556  and  _558
REMARK  220  A    between atoms: _558  and  _559
REMARK  221  A    between atoms: _558  and  _561
REMARK  222  A    between atoms: _561  and  _562
REMARK  223  A    between atoms: _565  and  _567
REMARK  224  A    between atoms: _567  and  _568
REMARK  225  A    between atoms: _567  and  _570
REMARK  226  A    between atoms: _573  and  _575
REMARK  227  A    between atoms: _575  and  _576
REMARK  228  A    between atoms: _575  and  _578
REMARK  229  A    between atoms: _578  and  _579
REMARK  230  A    between atoms: _582  and  _584
REMARK  231  A    between atoms: _584  and  _585
REMARK  232  A    between atoms: _584  and  _587
REMARK  233  A    between atoms: _587  and  _588
REMARK  234  A    between atoms: _594  and  _596
REMARK  235  A    between atoms: _596  and  _597
REMARK  236  A    between atoms: _596  and  _599
REMARK  237  A    between atoms: _599  and  _600
REMARK  238  A    between atoms: _602  and  _604
REMARK  239  A    between atoms: _604  and  _605
REMARK  240  A    between atoms: _604  and  _607
REMARK  241  A    between atoms: _607  and  _608
REMARK  242  A    between atoms: _618  and  _620
REMARK  243  A    between atoms: _620  and  _621
REMARK  244  A    between atoms: _620  and  _623
REMARK  245  A    between atoms: _623  and  _624
REMARK  246  A    between atoms: _624  and  _625
REMARK  247  A    between atoms: _628  and  _630
REMARK  248  A    between atoms: _630  and  _631
REMARK  249  A    between atoms: _630  and  _633
REMARK  250  A    between atoms: _633  and  _634
REMARK  251  A    between atoms: _637  and  _639
REMARK  252  A    between atoms: _639  and  _640
REMARK                            x       y       z     vdW  Elec       q    Type
REMARK                         _______ _______ _______ _____ _____    ______ ____
ROOT
ATOM      1  O   HOH     1      23.904  65.652  -0.261  0.00  0.00    +0.000 OA
ENDROOT
TORSDOF 0
REMARK  Name = ../refined-set-2016/2wm0/2wm0_pocket.pdb
REMARK  252 active torsions:
REMARK  status: ('A' for Active; 'I' for Inactive)
REMARK    1  A    between atoms: _1  and  _3
REMARK    2  A    between atoms: _3  and  _4
REMARK    3  A    between atoms: _3  and  _6
REMARK    4  A    between atoms: _6  and  _7
REMARK    5  A    between atoms: _12  and  _13
REMARK    6  A    between atoms: _15  and  _17
REMARK    7  A    between atoms: _17  and  _18
REMARK    8  A    between atoms: _17  and  _20
REMARK    9  A    between atoms: _23  and  _25
REMARK   10  A    between atoms: _25  and  _26
REMARK   11  A    between atoms: _25  and  _28
REMARK   12  A    between atoms: _28  and  _29
REMARK   13  A    between atoms: _29  and  _30
REMARK   14  A    between atoms: _33  and  _35
REMARK   15  A    between atoms: _35  and  _36
REMARK   16  A    between atoms: _35  and  _38
REMARK   17  A    between atoms: _38  and  _39
REMARK   18  A    between atoms: _49  and  _51
REMARK   19  A    between atoms: _51  and  _52
REMARK   20  A    between atoms: _54  and  _56
REMARK   21  A    between atoms: _56  and  _57
REMARK   22  A    between atoms: _56  and  _59
REMARK   23  A    between atoms: _59  and  _60
REMARK   24  A    between atoms: _65  and  _66
REMARK   25  A    between atoms: _68  and  _70
REMARK   26  A    between atoms: _70  and  _71
REMARK   27  A    between atoms: _73  and  _75
REMARK   28  A    between atoms: _75  and  _76
REMARK   29  A    between atoms: _75  and  _78
REMARK   30  A    between atoms: _78  and  _79
REMARK   31  A    between atoms: _79  and  _80
REMARK   32  A    between atoms: _80  and  _81
REMARK   33  A    between atoms: _90  and  _92
REMARK   34  A    between atoms: _92  and  _93
REMARK   35  A    between atoms: _92  and  _95
REMARK   36  A    between atoms: _95  and  _96
REMARK   37  A    between atoms: _99  and  _101
REMARK   38  A    between atoms: _101  and  _102
REMARK   39  A    between atoms: _104  and  _106
REMARK   40  A    between atoms: _106  and  _107
REMARK   41  A    between atoms: _106  and  _109
REMARK   42  A    between atoms: _109  and  _110
REMARK   43  A    between atoms: _116  and  _118
REMARK   44  A    between atoms: _118  and  _119
REMARK   45  A    between atoms: _118  and  _121
REMARK   46  A    between atoms: _121  and  _122
REMARK   47  A    between atoms: _126  and  _127
REMARK   48  A    between atoms: _132  and  _134
REMARK   49  A    between atoms: _134  and  _135
REMARK   50  A    between atoms: _134  and  _137
REMARK   51  A    between atoms: _137  and  _138
REMARK   52  A    between atoms: _140  and  _142
REMARK   53  A    between atoms: _142  and  _143
REMARK   54  A    between atoms: _142  and  _145
REMARK   55  A    between atoms: _145  and  _146
REMARK   56  A    between atoms: _149  and  _151
REMARK   57  A    between atoms: _151  and  _152
REMARK   58  A    between atoms: _151  and  _154
REMARK   59  A    between atoms: _154  and  _155
REMARK   60  A    between atoms: _155  and  _156
REMARK   61  A    between atoms: _159  and  _161
REMARK   62  A    between atoms: _161  and  _162
REMARK   63  A    between atoms: _161  and  _164
REMARK   64  A    between atoms: _164  and  _165
REMARK   65  A    between atoms: _168  and  _170
REMARK   66  A    between atoms: _170  and  _171
REMARK   67  A    between atoms: _170  and  _173
REMARK   68  A    between atoms: _173  and  _174
REMARK   69  A    between atoms: _174  and  _175
REMARK   70  A    between atoms: _178  and  _180
REMARK   71  A    between atoms: _180  and  _181
REMARK   72  A    between atoms: _183  and  _185
REMARK   73  A    between atoms: _185  and  _186
REMARK   74  A    between atoms: _185  and  _188
REMARK   75  A    between atoms: _188  and  _189
REMARK   76  A    between atoms: _191  and  _193
REMARK   77  A    between atoms: _193  and  _194
REMARK   78  A    between atoms: _193  and  _196
REMARK   79  A    between atoms: _196  and  _197
REMARK   80  A    between atoms: _203  and  _205
REMARK   81  A    between atoms: _205  and  _206
REMARK   82  A    between atoms: _205  and  _208
REMARK   83  A    between atoms: _208  and  _209
REMARK   84  A    between atoms: _214  and  _216
REMARK   85  A    between atoms: _216  and  _217
REMARK   86  A    between atoms: _216  and  _219
REMARK   87  A    between atoms: _219  and  _220
REMARK   88  A    between atoms: _223  and  _225
REMARK   89  A    between atoms: _225  and  _226
REMARK   90  A    between atoms: _225  and  _228
REMARK   91  A    between atoms: _228  and  _229
REMARK   92  A    between atoms: _231  and  _233
REMARK   93  A    between atoms: _233  and  _234
REMARK   94  A    between atoms: _233  and  _236
REMARK   95  A    between atoms: _236  and  _237
REMARK   96  A    between atoms: _240  and  _242
REMARK   97  A    between atoms: _242  and  _243
REMARK   98  A    between atoms: _245  and  _247
REMARK   99  A    between atoms: _247  and  _248
REMARK  100  A    between atoms: _250  and  _252
REMARK  101  A    between atoms: _252  and  _253
REMARK  102  A    between atoms: _252  and  _255
REMARK  103  A    between atoms: _255  and  _256
REMARK  104  A    between atoms: _266  and  _268
REMARK  105  A    between atoms: _268  and  _269
REMARK  106  A    between atoms: _268  and  _271
REMARK  107  A    between atoms: _271  and  _272
REMARK  108  A    between atoms: _275  and  _277
REMARK  109  A    between atoms: _277  and  _278
REMARK  110  A    between atoms: _277  and  _280
REMARK  111  A    between atoms: _280  and  _281
REMARK  112  A    between atoms: _284  and  _286
REMARK  113  A    between atoms: _286  and  _287
REMARK  114  A    between atoms: _286  and  _289
REMARK  115  A    between atoms: _289  and  _290
REMARK  116  A    between atoms: _292  and  _294
REMARK  117  A    between atoms: _294  and  _295
REMARK  118  A    between atoms: _294  and  _297
REMARK  119  A    between atoms: _297  and  _298
REMARK  120  A    between atoms: _301  and  _303
REMARK  121  A    between atoms: _303  and  _304
REMARK  122  A    between atoms: _303  and  _306
REMARK  123  A    between atoms: _306  and  _307
REMARK  124  A    between atoms: _310  and  _312
REMARK  125  A    between atoms: _312  and  _313
REMARK  126  A    between atoms: _312  and  _315
REMARK  127  A    between atoms: _315  and  _316
REMARK  128  A    between atoms: _319  and  _321
REMARK  129  A    between atoms: _321  and  _322
REMARK  130  A    between atoms: _321  and  _324
REMARK  131  A    between atoms: _324  and  _325
REMARK  132  A    between atoms: _335  and  _337
REMARK  133  A    between atoms: _337  and  _338
REMARK  134  A    between atoms: _337  and  _340
REMARK  135  A    between atoms: _340  and  _341
REMARK  136  A    between atoms: _341  and  _342
REMARK  137  A    between atoms: _345  and  _347
REMARK  138  A    between atoms: _347  and  _348
REMARK  139  A    between atoms: _347  and  _350
REMARK  140  A    between atoms: _350  and  _351
REMARK  141  A    between atoms: _357  and  _359
REMARK  142  A    between atoms: _359  and  _360
REMARK  143  A    between atoms: _363  and  _365
REMARK  144  A    between atoms: _365  and  _366
REMARK  145  A    between atoms: _365  and  _368
REMARK  146  A    between atoms: _368  and  _369
REMARK  147  A    between atoms: _371  and  _373
REMARK  148  A    between atoms: _373  and  _374
REMARK  149  A    between atoms: _377  and  _379
REMARK  150  A    between atoms: _379  and  _380
REMARK  151  A    between atoms: _379  and  _382
REMARK  152  A    between atoms: _382  and  _383
REMARK  153  A    between atoms: _386  and  _388
REMARK  154  A    between atoms: _388  and  _389
REMARK  155  A    between atoms: _388  and  _391
REMARK  156  A    between atoms: _391  and  _392
REMARK  157  A    between atoms: _398  and  _400
REMARK  158  A    between atoms: _400  and  _401
REMARK  159  A    between atoms: _400  and  _403
REMARK  160  A    between atoms: _403  and  _404
REMARK  161  A    between atoms: _404  and  _405
REMARK  162  A    between atoms: _407  and  _409
REMARK  163  A    between atoms: _409  and  _410
REMARK  164  A    between atoms: _409  and  _412
REMARK  165  A    between atoms: _412  and  _413
REMARK  166  A    between atoms: _418  and  _419
REMARK  167  A    between atoms: _421  and  _423
REMARK  168  A    between atoms: _423  and  _424
REMARK  169  A    between atoms: _423  and  _426
REMARK  170  A    between atoms: _426  and  _427
REMARK  171  A    between atoms: _430  and  _432
REMARK  172  A    between atoms: _432  and  _433
REMARK  173  A    between atoms: _432  and  _435
REMARK  174  A    between atoms: _435  and  _436
REMARK  175  A    between atoms: _442  and  _444
REMARK  176  A    between atoms: _444  and  _445
REMARK  177  A    between atoms: _444  and  _447
REMARK  178  A    between atoms: _447  and  _448
REMARK  179  A    between atoms: _448  and  _449
REMARK  180  A    between atoms: _454  and  _456
REMARK  181  A    between atoms: _456  and  _457
REMARK  182  A    between atoms: _456  and  _459
REMARK  183  A    between atoms: _459  and  _460
REMARK  184  A    between atoms: _463  and  _465
REMARK  185  A    between atoms: _465  and  _466
REMARK  186  A    between atoms: _469  and  _471
REMARK  187  A    between atoms: _471  and  _472
REMARK  188  A    between atoms: _471  and  _474
REMARK  189  A    between atoms: _474  and  _475
REMARK  190  A    between atoms: _475  and  _476
REMARK  191  A    between atoms: _478  and  _480
REMARK  192  A    between atoms: _480  and  _481
REMARK  193  A    between atoms: _480  and  _483
REMARK  194  A    between atoms: _483  and  _484
REMARK  195  A    between atoms: _489  and  _490
REMARK  196  A    between atoms: _492  and  _494
REMARK  197  A    between atoms: _494  and  _495
REMARK  198  A    between atoms: _497  and  _499
REMARK  199  A    between atoms: _499  and  _500
REMARK  200  A    between atoms: _499  and  _502
REMARK  201  A    between atoms: _502  and  _503
REMARK  202  A    between atoms: _503  and  _504
REMARK  203  A    between atoms: _504  and  _505
REMARK  204  A    between atoms: _514  and  _516
REMARK  205  A    between atoms: _516  and  _517
REMARK  206  A    between atoms: _516  and  _519
REMARK  207  A    between atoms: _519  and  _520
REMARK  208  A    between atoms: _530  and  _532
REMARK  209  A    between atoms: _532  and  _533
REMARK  210  A    between atoms: _532  and  _535
REMARK  211  A    between atoms: _535  and  _536
REMARK  212  A    between atoms: _536  and  _537
REMARK  213  A    between atoms: _540  and  _542
REMARK  214  A    between atoms: _542  and  _543
REMARK  215  A    between atoms: _542  and  _545
REMARK  216  A    between atoms: _545  and  _546
REMARK  217  A    between atoms: _551  and  _553
REMARK  218  A    between atoms: _553  and  _554
REMARK  219  A    between atoms: _556  and  _558
REMARK  220  A    between atoms: _558  and  _559
REMARK  221  A    between atoms: _558  and  _561
REMARK  222  A    between atoms: _561  and  _562
REMARK  223  A    between atoms: _565  and  _567
REMARK  224  A    between atoms: _567  and  _568
REMARK  225  A    between atoms: _567  and  _570
REMARK  226  A    between atoms: _573  and  _575
REMARK  227  A    between atoms: _575  and  _576
REMARK  228  A    between atoms: _575  and  _578
REMARK  229  A    between atoms: _578  and  _579
REMARK  230  A    between atoms: _582  and  _584
REMARK  231  A    between atoms: _584  and  _585
REMARK  232  A    between atoms: _584  and  _587
REMARK  233  A    between atoms: _587  and  _588
REMARK  234  A    between atoms: _594  and  _596
REMARK  235  A    between atoms: _596  and  _597
REMARK  236  A    between atoms: _596  and  _599
REMARK  237  A    between atoms: _599  and  _600
REMARK  238  A    between atoms: _602  and  _604
REMARK  239  A    between atoms: _604  and  _605
REMARK  240  A    between atoms: _604  and  _607
REMARK  241  A    between atoms: _607  and  _608
REMARK  242  A    between atoms: _618  and  _620
REMARK  243  A    between atoms: _620  and  _621
REMARK  244  A    between atoms: _620  and  _623
REMARK  245  A    between atoms: _623  and  _624
REMARK  246  A    between atoms: _624  and  _625
REMARK  247  A    between atoms: _628  and  _630
REMARK  248  A    between atoms: _630  and  _631
REMARK  249  A    between atoms: _630  and  _633
REMARK  250  A    between atoms: _633  and  _634
REMARK  251  A    between atoms: _637  and  _639
REMARK  252  A    between atoms: _639  and  _640
REMARK                            x       y       z     vdW  Elec       q    Type
REMARK                         _______ _______ _______ _____ _____    ______ ____
ROOT
ATOM      1  O   HOH     1      22.570  75.433   6.116  0.00  0.00    +0.000 OA
ENDROOT
TORSDOF 0
REMARK  Name = ../refined-set-2016/2wm0/2wm0_pocket.pdb
REMARK  252 active torsions:
REMARK  status: ('A' for Active; 'I' for Inactive)
REMARK    1  A    between atoms: _1  and  _3
REMARK    2  A    between atoms: _3  and  _4
REMARK    3  A    between atoms: _3  and  _6
REMARK    4  A    between atoms: _6  and  _7
REMARK    5  A    between atoms: _12  and  _13
REMARK    6  A    between atoms: _15  and  _17
REMARK    7  A    between atoms: _17  and  _18
REMARK    8  A    between atoms: _17  and  _20
REMARK    9  A    between atoms: _23  and  _25
REMARK   10  A    between atoms: _25  and  _26
REMARK   11  A    between atoms: _25  and  _28
REMARK   12  A    between atoms: _28  and  _29
REMARK   13  A    between atoms: _29  and  _30
REMARK   14  A    between atoms: _33  and  _35
REMARK   15  A    between atoms: _35  and  _36
REMARK   16  A    between atoms: _35  and  _38
REMARK   17  A    between atoms: _38  and  _39
REMARK   18  A    between atoms: _49  and  _51
REMARK   19  A    between atoms: _51  and  _52
REMARK   20  A    between atoms: _54  and  _56
REMARK   21  A    between atoms: _56  and  _57
REMARK   22  A    between atoms: _56  and  _59
REMARK   23  A    between atoms: _59  and  _60
REMARK   24  A    between atoms: _65  and  _66
REMARK   25  A    between atoms: _68  and  _70
REMARK   26  A    between atoms: _70  and  _71
REMARK   27  A    between atoms: _73  and  _75
REMARK   28  A    between atoms: _75  and  _76
REMARK   29  A    between atoms: _75  and  _78
REMARK   30  A    between atoms: _78  and  _79
REMARK   31  A    between atoms: _79  and  _80
REMARK   32  A    between atoms: _80  and  _81
REMARK   33  A    between atoms: _90  and  _92
REMARK   34  A    between atoms: _92  and  _93
REMARK   35  A    between atoms: _92  and  _95
REMARK   36  A    between atoms: _95  and  _96
REMARK   37  A    between atoms: _99  and  _101
REMARK   38  A    between atoms: _101  and  _102
REMARK   39  A    between atoms: _104  and  _106
REMARK   40  A    between atoms: _106  and  _107
REMARK   41  A    between atoms: _106  and  _109
REMARK   42  A    between atoms: _109  and  _110
REMARK   43  A    between atoms: _116  and  _118
REMARK   44  A    between atoms: _118  and  _119
REMARK   45  A    between atoms: _118  and  _121
REMARK   46  A    between atoms: _121  and  _122
REMARK   47  A    between atoms: _126  and  _127
REMARK   48  A    between atoms: _132  and  _134
REMARK   49  A    between atoms: _134  and  _135
REMARK   50  A    between atoms: _134  and  _137
REMARK   51  A    between atoms: _137  and  _138
REMARK   52  A    between atoms: _140  and  _142
REMARK   53  A    between atoms: _142  and  _143
REMARK   54  A    between atoms: _142  and  _145
REMARK   55  A    between atoms: _145  and  _146
REMARK   56  A    between atoms: _149  and  _151
REMARK   57  A    between atoms: _151  and  _152
REMARK   58  A    between atoms: _151  and  _154
REMARK   59  A    between atoms: _154  and  _155
REMARK   60  A    between atoms: _155  and  _156
REMARK   61  A    between atoms: _159  and  _161
REMARK   62  A    between atoms: _161  and  _162
REMARK   63  A    between atoms: _161  and  _164
REMARK   64  A    between atoms: _164  and  _165
REMARK   65  A    between atoms: _168  and  _170
REMARK   66  A    between atoms: _170  and  _171
REMARK   67  A    between atoms: _170  and  _173
REMARK   68  A    between atoms: _173  and  _174
REMARK   69  A    between atoms: _174  and  _175
REMARK   70  A    between atoms: _178  and  _180
REMARK   71  A    between atoms: _180  and  _181
REMARK   72  A    between atoms: _183  and  _185
REMARK   73  A    between atoms: _185  and  _186
REMARK   74  A    between atoms: _185  and  _188
REMARK   75  A    between atoms: _188  and  _189
REMARK   76  A    between atoms: _191  and  _193
REMARK   77  A    between atoms: _193  and  _194
REMARK   78  A    between atoms: _193  and  _196
REMARK   79  A    between atoms: _196  and  _197
REMARK   80  A    between atoms: _203  and  _205
REMARK   81  A    between atoms: _205  and  _206
REMARK   82  A    between atoms: _205  and  _208
REMARK   83  A    between atoms: _208  and  _209
REMARK   84  A    between atoms: _214  and  _216
REMARK   85  A    between atoms: _216  and  _217
REMARK   86  A    between atoms: _216  and  _219
REMARK   87  A    between atoms: _219  and  _220
REMARK   88  A    between atoms: _223  and  _225
REMARK   89  A    between atoms: _225  and  _226
REMARK   90  A    between atoms: _225  and  _228
REMARK   91  A    between atoms: _228  and  _229
REMARK   92  A    between atoms: _231  and  _233
REMARK   93  A    between atoms: _233  and  _234
REMARK   94  A    between atoms: _233  and  _236
REMARK   95  A    between atoms: _236  and  _237
REMARK   96  A    between atoms: _240  and  _242
REMARK   97  A    between atoms: _242  and  _243
REMARK   98  A    between atoms: _245  and  _247
REMARK   99  A    between atoms: _247  and  _248
REMARK  100  A    between atoms: _250  and  _252
REMARK  101  A    between atoms: _252  and  _253
REMARK  102  A    between atoms: _252  and  _255
REMARK  103  A    between atoms: _255  and  _256
REMARK  104  A    between atoms: _266  and  _268
REMARK  105  A    between atoms: _268  and  _269
REMARK  106  A    between atoms: _268  and  _271
REMARK  107  A    between atoms: _271  and  _272
REMARK  108  A    between atoms: _275  and  _277
REMARK  109  A    between atoms: _277  and  _278
REMARK  110  A    between atoms: _277  and  _280
REMARK  111  A    between atoms: _280  and  _281
REMARK  112  A    between atoms: _284  and  _286
REMARK  113  A    between atoms: _286  and  _287
REMARK  114  A    between atoms: _286  and  _289
REMARK  115  A    between atoms: _289  and  _290
REMARK  116  A    between atoms: _292  and  _294
REMARK  117  A    between atoms: _294  and  _295
REMARK  118  A    between atoms: _294  and  _297
REMARK  119  A    between atoms: _297  and  _298
REMARK  120  A    between atoms: _301  and  _303
REMARK  121  A    between atoms: _303  and  _304
REMARK  122  A    between atoms: _303  and  _306
REMARK  123  A    between atoms: _306  and  _307
REMARK  124  A    between atoms: _310  and  _312
REMARK  125  A    between atoms: _312  and  _313
REMARK  126  A    between atoms: _312  and  _315
REMARK  127  A    between atoms: _315  and  _316
REMARK  128  A    between atoms: _319  and  _321
REMARK  129  A    between atoms: _321  and  _322
REMARK  130  A    between atoms: _321  and  _324
REMARK  131  A    between atoms: _324  and  _325
REMARK  132  A    between atoms: _335  and  _337
REMARK  133  A    between atoms: _337  and  _338
REMARK  134  A    between atoms: _337  and  _340
REMARK  135  A    between atoms: _340  and  _341
REMARK  136  A    between atoms: _341  and  _342
REMARK  137  A    between atoms: _345  and  _347
REMARK  138  A    between atoms: _347  and  _348
REMARK  139  A    between atoms: _347  and  _350
REMARK  140  A    between atoms: _350  and  _351
REMARK  141  A    between atoms: _357  and  _359
REMARK  142  A    between atoms: _359  and  _360
REMARK  143  A    between atoms: _363  and  _365
REMARK  144  A    between atoms: _365  and  _366
REMARK  145  A    between atoms: _365  and  _368
REMARK  146  A    between atoms: _368  and  _369
REMARK  147  A    between atoms: _371  and  _373
REMARK  148  A    between atoms: _373  and  _374
REMARK  149  A    between atoms: _377  and  _379
REMARK  150  A    between atoms: _379  and  _380
REMARK  151  A    between atoms: _379  and  _382
REMARK  152  A    between atoms: _382  and  _383
REMARK  153  A    between atoms: _386  and  _388
REMARK  154  A    between atoms: _388  and  _389
REMARK  155  A    between atoms: _388  and  _391
REMARK  156  A    between atoms: _391  and  _392
REMARK  157  A    between atoms: _398  and  _400
REMARK  158  A    between atoms: _400  and  _401
REMARK  159  A    between atoms: _400  and  _403
REMARK  160  A    between atoms: _403  and  _404
REMARK  161  A    between atoms: _404  and  _405
REMARK  162  A    between atoms: _407  and  _409
REMARK  163  A    between atoms: _409  and  _410
REMARK  164  A    between atoms: _409  and  _412
REMARK  165  A    between atoms: _412  and  _413
REMARK  166  A    between atoms: _418  and  _419
REMARK  167  A    between atoms: _421  and  _423
REMARK  168  A    between atoms: _423  and  _424
REMARK  169  A    between atoms: _423  and  _426
REMARK  170  A    between atoms: _426  and  _427
REMARK  171  A    between atoms: _430  and  _432
REMARK  172  A    between atoms: _432  and  _433
REMARK  173  A    between atoms: _432  and  _435
REMARK  174  A    between atoms: _435  and  _436
REMARK  175  A    between atoms: _442  and  _444
REMARK  176  A    between atoms: _444  and  _445
REMARK  177  A    between atoms: _444  and  _447
REMARK  178  A    between atoms: _447  and  _448
REMARK  179  A    between atoms: _448  and  _449
REMARK  180  A    between atoms: _454  and  _456
REMARK  181  A    between atoms: _456  and  _457
REMARK  182  A    between atoms: _456  and  _459
REMARK  183  A    between atoms: _459  and  _460
REMARK  184  A    between atoms: _463  and  _465
REMARK  185  A    between atoms: _465  and  _466
REMARK  186  A    between atoms: _469  and  _471
REMARK  187  A    between atoms: _471  and  _472
REMARK  188  A    between atoms: _471  and  _474
REMARK  189  A    between atoms: _474  and  _475
REMARK  190  A    between atoms: _475  and  _476
REMARK  191  A    between atoms: _478  and  _480
REMARK  192  A    between atoms: _480  and  _481
REMARK  193  A    between atoms: _480  and  _483
REMARK  194  A    between atoms: _483  and  _484
REMARK  195  A    between atoms: _489  and  _490
REMARK  196  A    between atoms: _492  and  _494
REMARK  197  A    between atoms: _494  and  _495
REMARK  198  A    between atoms: _497  and  _499
REMARK  199  A    between atoms: _499  and  _500
REMARK  200  A    between atoms: _499  and  _502
REMARK  201  A    between atoms: _502  and  _503
REMARK  202  A    between atoms: _503  and  _504
REMARK  203  A    between atoms: _504  and  _505
REMARK  204  A    between atoms: _514  and  _516
REMARK  205  A    between atoms: _516  and  _517
REMARK  206  A    between atoms: _516  and  _519
REMARK  207  A    between atoms: _519  and  _520
REMARK  208  A    between atoms: _530  and  _532
REMARK  209  A    between atoms: _532  and  _533
REMARK  210  A    between atoms: _532  and  _535
REMARK  211  A    between atoms: _535  and  _536
REMARK  212  A    between atoms: _536  and  _537
REMARK  213  A    between atoms: _540  and  _542
REMARK  214  A    between atoms: _542  and  _543
REMARK  215  A    between atoms: _542  and  _545
REMARK  216  A    between atoms: _545  and  _546
REMARK  217  A    between atoms: _551  and  _553
REMARK  218  A    between atoms: _553  and  _554
REMARK  219  A    between atoms: _556  and  _558
REMARK  220  A    between atoms: _558  and  _559
REMARK  221  A    between atoms: _558  and  _561
REMARK  222  A    between atoms: _561  and  _562
REMARK  223  A    between atoms: _565  and  _567
REMARK  224  A    between atoms: _567  and  _568
REMARK  225  A    between atoms: _567  and  _570
REMARK  226  A    between atoms: _573  and  _575
REMARK  227  A    between atoms: _575  and  _576
REMARK  228  A    between atoms: _575  and  _578
REMARK  229  A    between atoms: _578  and  _579
REMARK  230  A    between atoms: _582  and  _584
REMARK  231  A    between atoms: _584  and  _585
REMARK  232  A    between atoms: _584  and  _587
REMARK  233  A    between atoms: _587  and  _588
REMARK  234  A    between atoms: _594  and  _596
REMARK  235  A    between atoms: _596  and  _597
REMARK  236  A    between atoms: _596  and  _599
REMARK  237  A    between atoms: _599  and  _600
REMARK  238  A    between atoms: _602  and  _604
REMARK  239  A    between atoms: _604  and  _605
REMARK  240  A    between atoms: _604  and  _607
REMARK  241  A    between atoms: _607  and  _608
REMARK  242  A    between atoms: _618  and  _620
REMARK  243  A    between atoms: _620  and  _621
REMARK  244  A    between atoms: _620  and  _623
REMARK  245  A    between atoms: _623  and  _624
REMARK  246  A    between atoms: _624  and  _625
REMARK  247  A    between atoms: _628  and  _630
REMARK  248  A    between atoms: _630  and  _631
REMARK  249  A    between atoms: _630  and  _633
REMARK  250  A    between atoms: _633  and  _634
REMARK  251  A    between atoms: _637  and  _639
REMARK  252  A    between atoms: _639  and  _640
REMARK                            x       y       z     vdW  Elec       q    Type
REMARK                         _______ _______ _______ _____ _____    ______ ____
ROOT
ATOM      1  O   HOH     1      20.504  77.878  -7.676  0.00  0.00    +0.000 OA
ENDROOT
TORSDOF 0
REMARK  Name = ../refined-set-2016/2wm0/2wm0_pocket.pdb
REMARK  252 active torsions:
REMARK  status: ('A' for Active; 'I' for Inactive)
REMARK    1  A    between atoms: _1  and  _3
REMARK    2  A    between atoms: _3  and  _4
REMARK    3  A    between atoms: _3  and  _6
REMARK    4  A    between atoms: _6  and  _7
REMARK    5  A    between atoms: _12  and  _13
REMARK    6  A    between atoms: _15  and  _17
REMARK    7  A    between atoms: _17  and  _18
REMARK    8  A    between atoms: _17  and  _20
REMARK    9  A    between atoms: _23  and  _25
REMARK   10  A    between atoms: _25  and  _26
REMARK   11  A    between atoms: _25  and  _28
REMARK   12  A    between atoms: _28  and  _29
REMARK   13  A    between atoms: _29  and  _30
REMARK   14  A    between atoms: _33  and  _35
REMARK   15  A    between atoms: _35  and  _36
REMARK   16  A    between atoms: _35  and  _38
REMARK   17  A    between atoms: _38  and  _39
REMARK   18  A    between atoms: _49  and  _51
REMARK   19  A    between atoms: _51  and  _52
REMARK   20  A    between atoms: _54  and  _56
REMARK   21  A    between atoms: _56  and  _57
REMARK   22  A    between atoms: _56  and  _59
REMARK   23  A    between atoms: _59  and  _60
REMARK   24  A    between atoms: _65  and  _66
REMARK   25  A    between atoms: _68  and  _70
REMARK   26  A    between atoms: _70  and  _71
REMARK   27  A    between atoms: _73  and  _75
REMARK   28  A    between atoms: _75  and  _76
REMARK   29  A    between atoms: _75  and  _78
REMARK   30  A    between atoms: _78  and  _79
REMARK   31  A    between atoms: _79  and  _80
REMARK   32  A    between atoms: _80  and  _81
REMARK   33  A    between atoms: _90  and  _92
REMARK   34  A    between atoms: _92  and  _93
REMARK   35  A    between atoms: _92  and  _95
REMARK   36  A    between atoms: _95  and  _96
REMARK   37  A    between atoms: _99  and  _101
REMARK   38  A    between atoms: _101  and  _102
REMARK   39  A    between atoms: _104  and  _106
REMARK   40  A    between atoms: _106  and  _107
REMARK   41  A    between atoms: _106  and  _109
REMARK   42  A    between atoms: _109  and  _110
REMARK   43  A    between atoms: _116  and  _118
REMARK   44  A    between atoms: _118  and  _119
REMARK   45  A    between atoms: _118  and  _121
REMARK   46  A    between atoms: _121  and  _122
REMARK   47  A    between atoms: _126  and  _127
REMARK   48  A    between atoms: _132  and  _134
REMARK   49  A    between atoms: _134  and  _135
REMARK   50  A    between atoms: _134  and  _137
REMARK   51  A    between atoms: _137  and  _138
REMARK   52  A    between atoms: _140  and  _142
REMARK   53  A    between atoms: _142  and  _143
REMARK   54  A    between atoms: _142  and  _145
REMARK   55  A    between atoms: _145  and  _146
REMARK   56  A    between atoms: _149  and  _151
REMARK   57  A    between atoms: _151  and  _152
REMARK   58  A    between atoms: _151  and  _154
REMARK   59  A    between atoms: _154  and  _155
REMARK   60  A    between atoms: _155  and  _156
REMARK   61  A    between atoms: _159  and  _161
REMARK   62  A    between atoms: _161  and  _162
REMARK   63  A    between atoms: _161  and  _164
REMARK   64  A    between atoms: _164  and  _165
REMARK   65  A    between atoms: _168  and  _170
REMARK   66  A    between atoms: _170  and  _171
REMARK   67  A    between atoms: _170  and  _173
REMARK   68  A    between atoms: _173  and  _174
REMARK   69  A    between atoms: _174  and  _175
REMARK   70  A    between atoms: _178  and  _180
REMARK   71  A    between atoms: _180  and  _181
REMARK   72  A    between atoms: _183  and  _185
REMARK   73  A    between atoms: _185  and  _186
REMARK   74  A    between atoms: _185  and  _188
REMARK   75  A    between atoms: _188  and  _189
REMARK   76  A    between atoms: _191  and  _193
REMARK   77  A    between atoms: _193  and  _194
REMARK   78  A    between atoms: _193  and  _196
REMARK   79  A    between atoms: _196  and  _197
REMARK   80  A    between atoms: _203  and  _205
REMARK   81  A    between atoms: _205  and  _206
REMARK   82  A    between atoms: _205  and  _208
REMARK   83  A    between atoms: _208  and  _209
REMARK   84  A    between atoms: _214  and  _216
REMARK   85  A    between atoms: _216  and  _217
REMARK   86  A    between atoms: _216  and  _219
REMARK   87  A    between atoms: _219  and  _220
REMARK   88  A    between atoms: _223  and  _225
REMARK   89  A    between atoms: _225  and  _226
REMARK   90  A    between atoms: _225  and  _228
REMARK   91  A    between atoms: _228  and  _229
REMARK   92  A    between atoms: _231  and  _233
REMARK   93  A    between atoms: _233  and  _234
REMARK   94  A    between atoms: _233  and  _236
REMARK   95  A    between atoms: _236  and  _237
REMARK   96  A    between atoms: _240  and  _242
REMARK   97  A    between atoms: _242  and  _243
REMARK   98  A    between atoms: _245  and  _247
REMARK   99  A    between atoms: _247  and  _248
REMARK  100  A    between atoms: _250  and  _252
REMARK  101  A    between atoms: _252  and  _253
REMARK  102  A    between atoms: _252  and  _255
REMARK  103  A    between atoms: _255  and  _256
REMARK  104  A    between atoms: _266  and  _268
REMARK  105  A    between atoms: _268  and  _269
REMARK  106  A    between atoms: _268  and  _271
REMARK  107  A    between atoms: _271  and  _272
REMARK  108  A    between atoms: _275  and  _277
REMARK  109  A    between atoms: _277  and  _278
REMARK  110  A    between atoms: _277  and  _280
REMARK  111  A    between atoms: _280  and  _281
REMARK  112  A    between atoms: _284  and  _286
REMARK  113  A    between atoms: _286  and  _287
REMARK  114  A    between atoms: _286  and  _289
REMARK  115  A    between atoms: _289  and  _290
REMARK  116  A    between atoms: _292  and  _294
REMARK  117  A    between atoms: _294  and  _295
REMARK  118  A    between atoms: _294  and  _297
REMARK  119  A    between atoms: _297  and  _298
REMARK  120  A    between atoms: _301  and  _303
REMARK  121  A    between atoms: _303  and  _304
REMARK  122  A    between atoms: _303  and  _306
REMARK  123  A    between atoms: _306  and  _307
REMARK  124  A    between atoms: _310  and  _312
REMARK  125  A    between atoms: _312  and  _313
REMARK  126  A    between atoms: _312  and  _315
REMARK  127  A    between atoms: _315  and  _316
REMARK  128  A    between atoms: _319  and  _321
REMARK  129  A    between atoms: _321  and  _322
REMARK  130  A    between atoms: _321  and  _324
REMARK  131  A    between atoms: _324  and  _325
REMARK  132  A    between atoms: _335  and  _337
REMARK  133  A    between atoms: _337  and  _338
REMARK  134  A    between atoms: _337  and  _340
REMARK  135  A    between atoms: _340  and  _341
REMARK  136  A    between atoms: _341  and  _342
REMARK  137  A    between atoms: _345  and  _347
REMARK  138  A    between atoms: _347  and  _348
REMARK  139  A    between atoms: _347  and  _350
REMARK  140  A    between atoms: _350  and  _351
REMARK  141  A    between atoms: _357  and  _359
REMARK  142  A    between atoms: _359  and  _360
REMARK  143  A    between atoms: _363  and  _365
REMARK  144  A    between atoms: _365  and  _366
REMARK  145  A    between atoms: _365  and  _368
REMARK  146  A    between atoms: _368  and  _369
REMARK  147  A    between atoms: _371  and  _373
REMARK  148  A    between atoms: _373  and  _374
REMARK  149  A    between atoms: _377  and  _379
REMARK  150  A    between atoms: _379  and  _380
REMARK  151  A    between atoms: _379  and  _382
REMARK  152  A    between atoms: _382  and  _383
REMARK  153  A    between atoms: _386  and  _388
REMARK  154  A    between atoms: _388  and  _389
REMARK  155  A    between atoms: _388  and  _391
REMARK  156  A    between atoms: _391  and  _392
REMARK  157  A    between atoms: _398  and  _400
REMARK  158  A    between atoms: _400  and  _401
REMARK  159  A    between atoms: _400  and  _403
REMARK  160  A    between atoms: _403  and  _404
REMARK  161  A    between atoms: _404  and  _405
REMARK  162  A    between atoms: _407  and  _409
REMARK  163  A    between atoms: _409  and  _410
REMARK  164  A    between atoms: _409  and  _412
REMARK  165  A    between atoms: _412  and  _413
REMARK  166  A    between atoms: _418  and  _419
REMARK  167  A    between atoms: _421  and  _423
REMARK  168  A    between atoms: _423  and  _424
REMARK  169  A    between atoms: _423  and  _426
REMARK  170  A    between atoms: _426  and  _427
REMARK  171  A    between atoms: _430  and  _432
REMARK  172  A    between atoms: _432  and  _433
REMARK  173  A    between atoms: _432  and  _435
REMARK  174  A    between atoms: _435  and  _436
REMARK  175  A    between atoms: _442  and  _444
REMARK  176  A    between atoms: _444  and  _445
REMARK  177  A    between atoms: _444  and  _447
REMARK  178  A    between atoms: _447  and  _448
REMARK  179  A    between atoms: _448  and  _449
REMARK  180  A    between atoms: _454  and  _456
REMARK  181  A    between atoms: _456  and  _457
REMARK  182  A    between atoms: _456  and  _459
REMARK  183  A    between atoms: _459  and  _460
REMARK  184  A    between atoms: _463  and  _465
REMARK  185  A    between atoms: _465  and  _466
REMARK  186  A    between atoms: _469  and  _471
REMARK  187  A    between atoms: _471  and  _472
REMARK  188  A    between atoms: _471  and  _474
REMARK  189  A    between atoms: _474  and  _475
REMARK  190  A    between atoms: _475  and  _476
REMARK  191  A    between atoms: _478  and  _480
REMARK  192  A    between atoms: _480  and  _481
REMARK  193  A    between atoms: _480  and  _483
REMARK  194  A    between atoms: _483  and  _484
REMARK  195  A    between atoms: _489  and  _490
REMARK  196  A    between atoms: _492  and  _494
REMARK  197  A    between atoms: _494  and  _495
REMARK  198  A    between atoms: _497  and  _499
REMARK  199  A    between atoms: _499  and  _500
REMARK  200  A    between atoms: _499  and  _502
REMARK  201  A    between atoms: _502  and  _503
REMARK  202  A    between atoms: _503  and  _504
REMARK  203  A    between atoms: _504  and  _505
REMARK  204  A    between atoms: _514  and  _516
REMARK  205  A    between atoms: _516  and  _517
REMARK  206  A    between atoms: _516  and  _519
REMARK  207  A    between atoms: _519  and  _520
REMARK  208  A    between atoms: _530  and  _532
REMARK  209  A    between atoms: _532  and  _533
REMARK  210  A    between atoms: _532  and  _535
REMARK  211  A    between atoms: _535  and  _536
REMARK  212  A    between atoms: _536  and  _537
REMARK  213  A    between atoms: _540  and  _542
REMARK  214  A    between atoms: _542  and  _543
REMARK  215  A    between atoms: _542  and  _545
REMARK  216  A    between atoms: _545  and  _546
REMARK  217  A    between atoms: _551  and  _553
REMARK  218  A    between atoms: _553  and  _554
REMARK  219  A    between atoms: _556  and  _558
REMARK  220  A    between atoms: _558  and  _559
REMARK  221  A    between atoms: _558  and  _561
REMARK  222  A    between atoms: _561  and  _562
REMARK  223  A    between atoms: _565  and  _567
REMARK  224  A    between atoms: _567  and  _568
REMARK  225  A    between atoms: _567  and  _570
REMARK  226  A    between atoms: _573  and  _575
REMARK  227  A    between atoms: _575  and  _576
REMARK  228  A    between atoms: _575  and  _578
REMARK  229  A    between atoms: _578  and  _579
REMARK  230  A    between atoms: _582  and  _584
REMARK  231  A    between atoms: _584  and  _585
REMARK  232  A    between atoms: _584  and  _587
REMARK  233  A    between atoms: _587  and  _588
REMARK  234  A    between atoms: _594  and  _596
REMARK  235  A    between atoms: _596  and  _597
REMARK  236  A    between atoms: _596  and  _599
REMARK  237  A    between atoms: _599  and  _600
REMARK  238  A    between atoms: _602  and  _604
REMARK  239  A    between atoms: _604  and  _605
REMARK  240  A    between atoms: _604  and  _607
REMARK  241  A    between atoms: _607  and  _608
REMARK  242  A    between atoms: _618  and  _620
REMARK  243  A    between atoms: _620  and  _621
REMARK  244  A    between atoms: _620  and  _623
REMARK  245  A    between atoms: _623  and  _624
REMARK  246  A    between atoms: _624  and  _625
REMARK  247  A    between atoms: _628  and  _630
REMARK  248  A    between atoms: _630  and  _631
REMARK  249  A    between atoms: _630  and  _633
REMARK  250  A    between atoms: _633  and  _634
REMARK  251  A    between atoms: _637  and  _639
REMARK  252  A    between atoms: _639  and  _640
REMARK                            x       y       z     vdW  Elec       q    Type
REMARK                         _______ _______ _______ _____ _____    ______ ____
ROOT
ATOM      1  O   HOH     1      25.977  74.527  -6.576  0.00  0.00    +0.000 OA
ENDROOT
TORSDOF 0
REMARK  Name = ../refined-set-2016/2wm0/2wm0_pocket.pdb
REMARK  252 active torsions:
REMARK  status: ('A' for Active; 'I' for Inactive)
REMARK    1  A    between atoms: _1  and  _3
REMARK    2  A    between atoms: _3  and  _4
REMARK    3  A    between atoms: _3  and  _6
REMARK    4  A    between atoms: _6  and  _7
REMARK    5  A    between atoms: _12  and  _13
REMARK    6  A    between atoms: _15  and  _17
REMARK    7  A    between atoms: _17  and  _18
REMARK    8  A    between atoms: _17  and  _20
REMARK    9  A    between atoms: _23  and  _25
REMARK   10  A    between atoms: _25  and  _26
REMARK   11  A    between atoms: _25  and  _28
REMARK   12  A    between atoms: _28  and  _29
REMARK   13  A    between atoms: _29  and  _30
REMARK   14  A    between atoms: _33  and  _35
REMARK   15  A    between atoms: _35  and  _36
REMARK   16  A    between atoms: _35  and  _38
REMARK   17  A    between atoms: _38  and  _39
REMARK   18  A    between atoms: _49  and  _51
REMARK   19  A    between atoms: _51  and  _52
REMARK   20  A    between atoms: _54  and  _56
REMARK   21  A    between atoms: _56  and  _57
REMARK   22  A    between atoms: _56  and  _59
REMARK   23  A    between atoms: _59  and  _60
REMARK   24  A    between atoms: _65  and  _66
REMARK   25  A    between atoms: _68  and  _70
REMARK   26  A    between atoms: _70  and  _71
REMARK   27  A    between atoms: _73  and  _75
REMARK   28  A    between atoms: _75  and  _76
REMARK   29  A    between atoms: _75  and  _78
REMARK   30  A    between atoms: _78  and  _79
REMARK   31  A    between atoms: _79  and  _80
REMARK   32  A    between atoms: _80  and  _81
REMARK   33  A    between atoms: _90  and  _92
REMARK   34  A    between atoms: _92  and  _93
REMARK   35  A    between atoms: _92  and  _95
REMARK   36  A    between atoms: _95  and  _96
REMARK   37  A    between atoms: _99  and  _101
REMARK   38  A    between atoms: _101  and  _102
REMARK   39  A    between atoms: _104  and  _106
REMARK   40  A    between atoms: _106  and  _107
REMARK   41  A    between atoms: _106  and  _109
REMARK   42  A    between atoms: _109  and  _110
REMARK   43  A    between atoms: _116  and  _118
REMARK   44  A    between atoms: _118  and  _119
REMARK   45  A    between atoms: _118  and  _121
REMARK   46  A    between atoms: _121  and  _122
REMARK   47  A    between atoms: _126  and  _127
REMARK   48  A    between atoms: _132  and  _134
REMARK   49  A    between atoms: _134  and  _135
REMARK   50  A    between atoms: _134  and  _137
REMARK   51  A    between atoms: _137  and  _138
REMARK   52  A    between atoms: _140  and  _142
REMARK   53  A    between atoms: _142  and  _143
REMARK   54  A    between atoms: _142  and  _145
REMARK   55  A    between atoms: _145  and  _146
REMARK   56  A    between atoms: _149  and  _151
REMARK   57  A    between atoms: _151  and  _152
REMARK   58  A    between atoms: _151  and  _154
REMARK   59  A    between atoms: _154  and  _155
REMARK   60  A    between atoms: _155  and  _156
REMARK   61  A    between atoms: _159  and  _161
REMARK   62  A    between atoms: _161  and  _162
REMARK   63  A    between atoms: _161  and  _164
REMARK   64  A    between atoms: _164  and  _165
REMARK   65  A    between atoms: _168  and  _170
REMARK   66  A    between atoms: _170  and  _171
REMARK   67  A    between atoms: _170  and  _173
REMARK   68  A    between atoms: _173  and  _174
REMARK   69  A    between atoms: _174  and  _175
REMARK   70  A    between atoms: _178  and  _180
REMARK   71  A    between atoms: _180  and  _181
REMARK   72  A    between atoms: _183  and  _185
REMARK   73  A    between atoms: _185  and  _186
REMARK   74  A    between atoms: _185  and  _188
REMARK   75  A    between atoms: _188  and  _189
REMARK   76  A    between atoms: _191  and  _193
REMARK   77  A    between atoms: _193  and  _194
REMARK   78  A    between atoms: _193  and  _196
REMARK   79  A    between atoms: _196  and  _197
REMARK   80  A    between atoms: _203  and  _205
REMARK   81  A    between atoms: _205  and  _206
REMARK   82  A    between atoms: _205  and  _208
REMARK   83  A    between atoms: _208  and  _209
REMARK   84  A    between atoms: _214  and  _216
REMARK   85  A    between atoms: _216  and  _217
REMARK   86  A    between atoms: _216  and  _219
REMARK   87  A    between atoms: _219  and  _220
REMARK   88  A    between atoms: _223  and  _225
REMARK   89  A    between atoms: _225  and  _226
REMARK   90  A    between atoms: _225  and  _228
REMARK   91  A    between atoms: _228  and  _229
REMARK   92  A    between atoms: _231  and  _233
REMARK   93  A    between atoms: _233  and  _234
REMARK   94  A    between atoms: _233  and  _236
REMARK   95  A    between atoms: _236  and  _237
REMARK   96  A    between atoms: _240  and  _242
REMARK   97  A    between atoms: _242  and  _243
REMARK   98  A    between atoms: _245  and  _247
REMARK   99  A    between atoms: _247  and  _248
REMARK  100  A    between atoms: _250  and  _252
REMARK  101  A    between atoms: _252  and  _253
REMARK  102  A    between atoms: _252  and  _255
REMARK  103  A    between atoms: _255  and  _256
REMARK  104  A    between atoms: _266  and  _268
REMARK  105  A    between atoms: _268  and  _269
REMARK  106  A    between atoms: _268  and  _271
REMARK  107  A    between atoms: _271  and  _272
REMARK  108  A    between atoms: _275  and  _277
REMARK  109  A    between atoms: _277  and  _278
REMARK  110  A    between atoms: _277  and  _280
REMARK  111  A    between atoms: _280  and  _281
REMARK  112  A    between atoms: _284  and  _286
REMARK  113  A    between atoms: _286  and  _287
REMARK  114  A    between atoms: _286  and  _289
REMARK  115  A    between atoms: _289  and  _290
REMARK  116  A    between atoms: _292  and  _294
REMARK  117  A    between atoms: _294  and  _295
REMARK  118  A    between atoms: _294  and  _297
REMARK  119  A    between atoms: _297  and  _298
REMARK  120  A    between atoms: _301  and  _303
REMARK  121  A    between atoms: _303  and  _304
REMARK  122  A    between atoms: _303  and  _306
REMARK  123  A    between atoms: _306  and  _307
REMARK  124  A    between atoms: _310  and  _312
REMARK  125  A    between atoms: _312  and  _313
REMARK  126  A    between atoms: _312  and  _315
REMARK  127  A    between atoms: _315  and  _316
REMARK  128  A    between atoms: _319  and  _321
REMARK  129  A    between atoms: _321  and  _322
REMARK  130  A    between atoms: _321  and  _324
REMARK  131  A    between atoms: _324  and  _325
REMARK  132  A    between atoms: _335  and  _337
REMARK  133  A    between atoms: _337  and  _338
REMARK  134  A    between atoms: _337  and  _340
REMARK  135  A    between atoms: _340  and  _341
REMARK  136  A    between atoms: _341  and  _342
REMARK  137  A    between atoms: _345  and  _347
REMARK  138  A    between atoms: _347  and  _348
REMARK  139  A    between atoms: _347  and  _350
REMARK  140  A    between atoms: _350  and  _351
REMARK  141  A    between atoms: _357  and  _359
REMARK  142  A    between atoms: _359  and  _360
REMARK  143  A    between atoms: _363  and  _365
REMARK  144  A    between atoms: _365  and  _366
REMARK  145  A    between atoms: _365  and  _368
REMARK  146  A    between atoms: _368  and  _369
REMARK  147  A    between atoms: _371  and  _373
REMARK  148  A    between atoms: _373  and  _374
REMARK  149  A    between atoms: _377  and  _379
REMARK  150  A    between atoms: _379  and  _380
REMARK  151  A    between atoms: _379  and  _382
REMARK  152  A    between atoms: _382  and  _383
REMARK  153  A    between atoms: _386  and  _388
REMARK  154  A    between atoms: _388  and  _389
REMARK  155  A    between atoms: _388  and  _391
REMARK  156  A    between atoms: _391  and  _392
REMARK  157  A    between atoms: _398  and  _400
REMARK  158  A    between atoms: _400  and  _401
REMARK  159  A    between atoms: _400  and  _403
REMARK  160  A    between atoms: _403  and  _404
REMARK  161  A    between atoms: _404  and  _405
REMARK  162  A    between atoms: _407  and  _409
REMARK  163  A    between atoms: _409  and  _410
REMARK  164  A    between atoms: _409  and  _412
REMARK  165  A    between atoms: _412  and  _413
REMARK  166  A    between atoms: _418  and  _419
REMARK  167  A    between atoms: _421  and  _423
REMARK  168  A    between atoms: _423  and  _424
REMARK  169  A    between atoms: _423  and  _426
REMARK  170  A    between atoms: _426  and  _427
REMARK  171  A    between atoms: _430  and  _432
REMARK  172  A    between atoms: _432  and  _433
REMARK  173  A    between atoms: _432  and  _435
REMARK  174  A    between atoms: _435  and  _436
REMARK  175  A    between atoms: _442  and  _444
REMARK  176  A    between atoms: _444  and  _445
REMARK  177  A    between atoms: _444  and  _447
REMARK  178  A    between atoms: _447  and  _448
REMARK  179  A    between atoms: _448  and  _449
REMARK  180  A    between atoms: _454  and  _456
REMARK  181  A    between atoms: _456  and  _457
REMARK  182  A    between atoms: _456  and  _459
REMARK  183  A    between atoms: _459  and  _460
REMARK  184  A    between atoms: _463  and  _465
REMARK  185  A    between atoms: _465  and  _466
REMARK  186  A    between atoms: _469  and  _471
REMARK  187  A    between atoms: _471  and  _472
REMARK  188  A    between atoms: _471  and  _474
REMARK  189  A    between atoms: _474  and  _475
REMARK  190  A    between atoms: _475  and  _476
REMARK  191  A    between atoms: _478  and  _480
REMARK  192  A    between atoms: _480  and  _481
REMARK  193  A    between atoms: _480  and  _483
REMARK  194  A    between atoms: _483  and  _484
REMARK  195  A    between atoms: _489  and  _490
REMARK  196  A    between atoms: _492  and  _494
REMARK  197  A    between atoms: _494  and  _495
REMARK  198  A    between atoms: _497  and  _499
REMARK  199  A    between atoms: _499  and  _500
REMARK  200  A    between atoms: _499  and  _502
REMARK  201  A    between atoms: _502  and  _503
REMARK  202  A    between atoms: _503  and  _504
REMARK  203  A    between atoms: _504  and  _505
REMARK  204  A    between atoms: _514  and  _516
REMARK  205  A    between atoms: _516  and  _517
REMARK  206  A    between atoms: _516  and  _519
REMARK  207  A    between atoms: _519  and  _520
REMARK  208  A    between atoms: _530  and  _532
REMARK  209  A    between atoms: _532  and  _533
REMARK  210  A    between atoms: _532  and  _535
REMARK  211  A    between atoms: _535  and  _536
REMARK  212  A    between atoms: _536  and  _537
REMARK  213  A    between atoms: _540  and  _542
REMARK  214  A    between atoms: _542  and  _543
REMARK  215  A    between atoms: _542  and  _545
REMARK  216  A    between atoms: _545  and  _546
REMARK  217  A    between atoms: _551  and  _553
REMARK  218  A    between atoms: _553  and  _554
REMARK  219  A    between atoms: _556  and  _558
REMARK  220  A    between atoms: _558  and  _559
REMARK  221  A    between atoms: _558  and  _561
REMARK  222  A    between atoms: _561  and  _562
REMARK  223  A    between atoms: _565  and  _567
REMARK  224  A    between atoms: _567  and  _568
REMARK  225  A    between atoms: _567  and  _570
REMARK  226  A    between atoms: _573  and  _575
REMARK  227  A    between atoms: _575  and  _576
REMARK  228  A    between atoms: _575  and  _578
REMARK  229  A    between atoms: _578  and  _579
REMARK  230  A    between atoms: _582  and  _584
REMARK  231  A    between atoms: _584  and  _585
REMARK  232  A    between atoms: _584  and  _587
REMARK  233  A    between atoms: _587  and  _588
REMARK  234  A    between atoms: _594  and  _596
REMARK  235  A    between atoms: _596  and  _597
REMARK  236  A    between atoms: _596  and  _599
REMARK  237  A    between atoms: _599  and  _600
REMARK  238  A    between atoms: _602  and  _604
REMARK  239  A    between atoms: _604  and  _605
REMARK  240  A    between atoms: _604  and  _607
REMARK  241  A    between atoms: _607  and  _608
REMARK  242  A    between atoms: _618  and  _620
REMARK  243  A    between atoms: _620  and  _621
REMARK  244  A    between atoms: _620  and  _623
REMARK  245  A    between atoms: _623  and  _624
REMARK  246  A    between atoms: _624  and  _625
REMARK  247  A    between atoms: _628  and  _630
REMARK  248  A    between atoms: _630  and  _631
REMARK  249  A    between atoms: _630  and  _633
REMARK  250  A    between atoms: _633  and  _634
REMARK  251  A    between atoms: _637  and  _639
REMARK  252  A    between atoms: _639  and  _640
REMARK                            x       y       z     vdW  Elec       q    Type
REMARK                         _______ _______ _______ _____ _____    ______ ____
ROOT
ATOM      1  O   HOH     1      23.639  75.670  -9.826  0.00  0.00    +0.000 OA
ENDROOT
TORSDOF 0
REMARK  Name = ../refined-set-2016/2wm0/2wm0_pocket.pdb
REMARK  252 active torsions:
REMARK  status: ('A' for Active; 'I' for Inactive)
REMARK    1  A    between atoms: _1  and  _3
REMARK    2  A    between atoms: _3  and  _4
REMARK    3  A    between atoms: _3  and  _6
REMARK    4  A    between atoms: _6  and  _7
REMARK    5  A    between atoms: _12  and  _13
REMARK    6  A    between atoms: _15  and  _17
REMARK    7  A    between atoms: _17  and  _18
REMARK    8  A    between atoms: _17  and  _20
REMARK    9  A    between atoms: _23  and  _25
REMARK   10  A    between atoms: _25  and  _26
REMARK   11  A    between atoms: _25  and  _28
REMARK   12  A    between atoms: _28  and  _29
REMARK   13  A    between atoms: _29  and  _30
REMARK   14  A    between atoms: _33  and  _35
REMARK   15  A    between atoms: _35  and  _36
REMARK   16  A    between atoms: _35  and  _38
REMARK   17  A    between atoms: _38  and  _39
REMARK   18  A    between atoms: _49  and  _51
REMARK   19  A    between atoms: _51  and  _52
REMARK   20  A    between atoms: _54  and  _56
REMARK   21  A    between atoms: _56  and  _57
REMARK   22  A    between atoms: _56  and  _59
REMARK   23  A    between atoms: _59  and  _60
REMARK   24  A    between atoms: _65  and  _66
REMARK   25  A    between atoms: _68  and  _70
REMARK   26  A    between atoms: _70  and  _71
REMARK   27  A    between atoms: _73  and  _75
REMARK   28  A    between atoms: _75  and  _76
REMARK   29  A    between atoms: _75  and  _78
REMARK   30  A    between atoms: _78  and  _79
REMARK   31  A    between atoms: _79  and  _80
REMARK   32  A    between atoms: _80  and  _81
REMARK   33  A    between atoms: _90  and  _92
REMARK   34  A    between atoms: _92  and  _93
REMARK   35  A    between atoms: _92  and  _95
REMARK   36  A    between atoms: _95  and  _96
REMARK   37  A    between atoms: _99  and  _101
REMARK   38  A    between atoms: _101  and  _102
REMARK   39  A    between atoms: _104  and  _106
REMARK   40  A    between atoms: _106  and  _107
REMARK   41  A    between atoms: _106  and  _109
REMARK   42  A    between atoms: _109  and  _110
REMARK   43  A    between atoms: _116  and  _118
REMARK   44  A    between atoms: _118  and  _119
REMARK   45  A    between atoms: _118  and  _121
REMARK   46  A    between atoms: _121  and  _122
REMARK   47  A    between atoms: _126  and  _127
REMARK   48  A    between atoms: _132  and  _134
REMARK   49  A    between atoms: _134  and  _135
REMARK   50  A    between atoms: _134  and  _137
REMARK   51  A    between atoms: _137  and  _138
REMARK   52  A    between atoms: _140  and  _142
REMARK   53  A    between atoms: _142  and  _143
REMARK   54  A    between atoms: _142  and  _145
REMARK   55  A    between atoms: _145  and  _146
REMARK   56  A    between atoms: _149  and  _151
REMARK   57  A    between atoms: _151  and  _152
REMARK   58  A    between atoms: _151  and  _154
REMARK   59  A    between atoms: _154  and  _155
REMARK   60  A    between atoms: _155  and  _156
REMARK   61  A    between atoms: _159  and  _161
REMARK   62  A    between atoms: _161  and  _162
REMARK   63  A    between atoms: _161  and  _164
REMARK   64  A    between atoms: _164  and  _165
REMARK   65  A    between atoms: _168  and  _170
REMARK   66  A    between atoms: _170  and  _171
REMARK   67  A    between atoms: _170  and  _173
REMARK   68  A    between atoms: _173  and  _174
REMARK   69  A    between atoms: _174  and  _175
REMARK   70  A    between atoms: _178  and  _180
REMARK   71  A    between atoms: _180  and  _181
REMARK   72  A    between atoms: _183  and  _185
REMARK   73  A    between atoms: _185  and  _186
REMARK   74  A    between atoms: _185  and  _188
REMARK   75  A    between atoms: _188  and  _189
REMARK   76  A    between atoms: _191  and  _193
REMARK   77  A    between atoms: _193  and  _194
REMARK   78  A    between atoms: _193  and  _196
REMARK   79  A    between atoms: _196  and  _197
REMARK   80  A    between atoms: _203  and  _205
REMARK   81  A    between atoms: _205  and  _206
REMARK   82  A    between atoms: _205  and  _208
REMARK   83  A    between atoms: _208  and  _209
REMARK   84  A    between atoms: _214  and  _216
REMARK   85  A    between atoms: _216  and  _217
REMARK   86  A    between atoms: _216  and  _219
REMARK   87  A    between atoms: _219  and  _220
REMARK   88  A    between atoms: _223  and  _225
REMARK   89  A    between atoms: _225  and  _226
REMARK   90  A    between atoms: _225  and  _228
REMARK   91  A    between atoms: _228  and  _229
REMARK   92  A    between atoms: _231  and  _233
REMARK   93  A    between atoms: _233  and  _234
REMARK   94  A    between atoms: _233  and  _236
REMARK   95  A    between atoms: _236  and  _237
REMARK   96  A    between atoms: _240  and  _242
REMARK   97  A    between atoms: _242  and  _243
REMARK   98  A    between atoms: _245  and  _247
REMARK   99  A    between atoms: _247  and  _248
REMARK  100  A    between atoms: _250  and  _252
REMARK  101  A    between atoms: _252  and  _253
REMARK  102  A    between atoms: _252  and  _255
REMARK  103  A    between atoms: _255  and  _256
REMARK  104  A    between atoms: _266  and  _268
REMARK  105  A    between atoms: _268  and  _269
REMARK  106  A    between atoms: _268  and  _271
REMARK  107  A    between atoms: _271  and  _272
REMARK  108  A    between atoms: _275  and  _277
REMARK  109  A    between atoms: _277  and  _278
REMARK  110  A    between atoms: _277  and  _280
REMARK  111  A    between atoms: _280  and  _281
REMARK  112  A    between atoms: _284  and  _286
REMARK  113  A    between atoms: _286  and  _287
REMARK  114  A    between atoms: _286  and  _289
REMARK  115  A    between atoms: _289  and  _290
REMARK  116  A    between atoms: _292  and  _294
REMARK  117  A    between atoms: _294  and  _295
REMARK  118  A    between atoms: _294  and  _297
REMARK  119  A    between atoms: _297  and  _298
REMARK  120  A    between atoms: _301  and  _303
REMARK  121  A    between atoms: _303  and  _304
REMARK  122  A    between atoms: _303  and  _306
REMARK  123  A    between atoms: _306  and  _307
REMARK  124  A    between atoms: _310  and  _312
REMARK  125  A    between atoms: _312  and  _313
REMARK  126  A    between atoms: _312  and  _315
REMARK  127  A    between atoms: _315  and  _316
REMARK  128  A    between atoms: _319  and  _321
REMARK  129  A    between atoms: _321  and  _322
REMARK  130  A    between atoms: _321  and  _324
REMARK  131  A    between atoms: _324  and  _325
REMARK  132  A    between atoms: _335  and  _337
REMARK  133  A    between atoms: _337  and  _338
REMARK  134  A    between atoms: _337  and  _340
REMARK  135  A    between atoms: _340  and  _341
REMARK  136  A    between atoms: _341  and  _342
REMARK  137  A    between atoms: _345  and  _347
REMARK  138  A    between atoms: _347  and  _348
REMARK  139  A    between atoms: _347  and  _350
REMARK  140  A    between atoms: _350  and  _351
REMARK  141  A    between atoms: _357  and  _359
REMARK  142  A    between atoms: _359  and  _360
REMARK  143  A    between atoms: _363  and  _365
REMARK  144  A    between atoms: _365  and  _366
REMARK  145  A    between atoms: _365  and  _368
REMARK  146  A    between atoms: _368  and  _369
REMARK  147  A    between atoms: _371  and  _373
REMARK  148  A    between atoms: _373  and  _374
REMARK  149  A    between atoms: _377  and  _379
REMARK  150  A    between atoms: _379  and  _380
REMARK  151  A    between atoms: _379  and  _382
REMARK  152  A    between atoms: _382  and  _383
REMARK  153  A    between atoms: _386  and  _388
REMARK  154  A    between atoms: _388  and  _389
REMARK  155  A    between atoms: _388  and  _391
REMARK  156  A    between atoms: _391  and  _392
REMARK  157  A    between atoms: _398  and  _400
REMARK  158  A    between atoms: _400  and  _401
REMARK  159  A    between atoms: _400  and  _403
REMARK  160  A    between atoms: _403  and  _404
REMARK  161  A    between atoms: _404  and  _405
REMARK  162  A    between atoms: _407  and  _409
REMARK  163  A    between atoms: _409  and  _410
REMARK  164  A    between atoms: _409  and  _412
REMARK  165  A    between atoms: _412  and  _413
REMARK  166  A    between atoms: _418  and  _419
REMARK  167  A    between atoms: _421  and  _423
REMARK  168  A    between atoms: _423  and  _424
REMARK  169  A    between atoms: _423  and  _426
REMARK  170  A    between atoms: _426  and  _427
REMARK  171  A    between atoms: _430  and  _432
REMARK  172  A    between atoms: _432  and  _433
REMARK  173  A    between atoms: _432  and  _435
REMARK  174  A    between atoms: _435  and  _436
REMARK  175  A    between atoms: _442  and  _444
REMARK  176  A    between atoms: _444  and  _445
REMARK  177  A    between atoms: _444  and  _447
REMARK  178  A    between atoms: _447  and  _448
REMARK  179  A    between atoms: _448  and  _449
REMARK  180  A    between atoms: _454  and  _456
REMARK  181  A    between atoms: _456  and  _457
REMARK  182  A    between atoms: _456  and  _459
REMARK  183  A    between atoms: _459  and  _460
REMARK  184  A    between atoms: _463  and  _465
REMARK  185  A    between atoms: _465  and  _466
REMARK  186  A    between atoms: _469  and  _471
REMARK  187  A    between atoms: _471  and  _472
REMARK  188  A    between atoms: _471  and  _474
REMARK  189  A    between atoms: _474  and  _475
REMARK  190  A    between atoms: _475  and  _476
REMARK  191  A    between atoms: _478  and  _480
REMARK  192  A    between atoms: _480  and  _481
REMARK  193  A    between atoms: _480  and  _483
REMARK  194  A    between atoms: _483  and  _484
REMARK  195  A    between atoms: _489  and  _490
REMARK  196  A    between atoms: _492  and  _494
REMARK  197  A    between atoms: _494  and  _495
REMARK  198  A    between atoms: _497  and  _499
REMARK  199  A    between atoms: _499  and  _500
REMARK  200  A    between atoms: _499  and  _502
REMARK  201  A    between atoms: _502  and  _503
REMARK  202  A    between atoms: _503  and  _504
REMARK  203  A    between atoms: _504  and  _505
REMARK  204  A    between atoms: _514  and  _516
REMARK  205  A    between atoms: _516  and  _517
REMARK  206  A    between atoms: _516  and  _519
REMARK  207  A    between atoms: _519  and  _520
REMARK  208  A    between atoms: _530  and  _532
REMARK  209  A    between atoms: _532  and  _533
REMARK  210  A    between atoms: _532  and  _535
REMARK  211  A    between atoms: _535  and  _536
REMARK  212  A    between atoms: _536  and  _537
REMARK  213  A    between atoms: _540  and  _542
REMARK  214  A    between atoms: _542  and  _543
REMARK  215  A    between atoms: _542  and  _545
REMARK  216  A    between atoms: _545  and  _546
REMARK  217  A    between atoms: _551  and  _553
REMARK  218  A    between atoms: _553  and  _554
REMARK  219  A    between atoms: _556  and  _558
REMARK  220  A    between atoms: _558  and  _559
REMARK  221  A    between atoms: _558  and  _561
REMARK  222  A    between atoms: _561  and  _562
REMARK  223  A    between atoms: _565  and  _567
REMARK  224  A    between atoms: _567  and  _568
REMARK  225  A    between atoms: _567  and  _570
REMARK  226  A    between atoms: _573  and  _575
REMARK  227  A    between atoms: _575  and  _576
REMARK  228  A    between atoms: _575  and  _578
REMARK  229  A    between atoms: _578  and  _579
REMARK  230  A    between atoms: _582  and  _584
REMARK  231  A    between atoms: _584  and  _585
REMARK  232  A    between atoms: _584  and  _587
REMARK  233  A    between atoms: _587  and  _588
REMARK  234  A    between atoms: _594  and  _596
REMARK  235  A    between atoms: _596  and  _597
REMARK  236  A    between atoms: _596  and  _599
REMARK  237  A    between atoms: _599  and  _600
REMARK  238  A    between atoms: _602  and  _604
REMARK  239  A    between atoms: _604  and  _605
REMARK  240  A    between atoms: _604  and  _607
REMARK  241  A    between atoms: _607  and  _608
REMARK  242  A    between atoms: _618  and  _620
REMARK  243  A    between atoms: _620  and  _621
REMARK  244  A    between atoms: _620  and  _623
REMARK  245  A    between atoms: _623  and  _624
REMARK  246  A    between atoms: _624  and  _625
REMARK  247  A    between atoms: _628  and  _630
REMARK  248  A    between atoms: _630  and  _631
REMARK  249  A    between atoms: _630  and  _633
REMARK  250  A    between atoms: _633  and  _634
REMARK  251  A    between atoms: _637  and  _639
REMARK  252  A    between atoms: _639  and  _640
REMARK                            x       y       z     vdW  Elec       q    Type
REMARK                         _______ _______ _______ _____ _____    ______ ____
ROOT
ATOM      1  O   HOH     1      20.678  80.094  -6.173  0.00  0.00    +0.000 OA
ENDROOT
TORSDOF 0
REMARK  Name = ../refined-set-2016/2wm0/2wm0_pocket.pdb
REMARK  252 active torsions:
REMARK  status: ('A' for Active; 'I' for Inactive)
REMARK    1  A    between atoms: _1  and  _3
REMARK    2  A    between atoms: _3  and  _4
REMARK    3  A    between atoms: _3  and  _6
REMARK    4  A    between atoms: _6  and  _7
REMARK    5  A    between atoms: _12  and  _13
REMARK    6  A    between atoms: _15  and  _17
REMARK    7  A    between atoms: _17  and  _18
REMARK    8  A    between atoms: _17  and  _20
REMARK    9  A    between atoms: _23  and  _25
REMARK   10  A    between atoms: _25  and  _26
REMARK   11  A    between atoms: _25  and  _28
REMARK   12  A    between atoms: _28  and  _29
REMARK   13  A    between atoms: _29  and  _30
REMARK   14  A    between atoms: _33  and  _35
REMARK   15  A    between atoms: _35  and  _36
REMARK   16  A    between atoms: _35  and  _38
REMARK   17  A    between atoms: _38  and  _39
REMARK   18  A    between atoms: _49  and  _51
REMARK   19  A    between atoms: _51  and  _52
REMARK   20  A    between atoms: _54  and  _56
REMARK   21  A    between atoms: _56  and  _57
REMARK   22  A    between atoms: _56  and  _59
REMARK   23  A    between atoms: _59  and  _60
REMARK   24  A    between atoms: _65  and  _66
REMARK   25  A    between atoms: _68  and  _70
REMARK   26  A    between atoms: _70  and  _71
REMARK   27  A    between atoms: _73  and  _75
REMARK   28  A    between atoms: _75  and  _76
REMARK   29  A    between atoms: _75  and  _78
REMARK   30  A    between atoms: _78  and  _79
REMARK   31  A    between atoms: _79  and  _80
REMARK   32  A    between atoms: _80  and  _81
REMARK   33  A    between atoms: _90  and  _92
REMARK   34  A    between atoms: _92  and  _93
REMARK   35  A    between atoms: _92  and  _95
REMARK   36  A    between atoms: _95  and  _96
REMARK   37  A    between atoms: _99  and  _101
REMARK   38  A    between atoms: _101  and  _102
REMARK   39  A    between atoms: _104  and  _106
REMARK   40  A    between atoms: _106  and  _107
REMARK   41  A    between atoms: _106  and  _109
REMARK   42  A    between atoms: _109  and  _110
REMARK   43  A    between atoms: _116  and  _118
REMARK   44  A    between atoms: _118  and  _119
REMARK   45  A    between atoms: _118  and  _121
REMARK   46  A    between atoms: _121  and  _122
REMARK   47  A    between atoms: _126  and  _127
REMARK   48  A    between atoms: _132  and  _134
REMARK   49  A    between atoms: _134  and  _135
REMARK   50  A    between atoms: _134  and  _137
REMARK   51  A    between atoms: _137  and  _138
REMARK   52  A    between atoms: _140  and  _142
REMARK   53  A    between atoms: _142  and  _143
REMARK   54  A    between atoms: _142  and  _145
REMARK   55  A    between atoms: _145  and  _146
REMARK   56  A    between atoms: _149  and  _151
REMARK   57  A    between atoms: _151  and  _152
REMARK   58  A    between atoms: _151  and  _154
REMARK   59  A    between atoms: _154  and  _155
REMARK   60  A    between atoms: _155  and  _156
REMARK   61  A    between atoms: _159  and  _161
REMARK   62  A    between atoms: _161  and  _162
REMARK   63  A    between atoms: _161  and  _164
REMARK   64  A    between atoms: _164  and  _165
REMARK   65  A    between atoms: _168  and  _170
REMARK   66  A    between atoms: _170  and  _171
REMARK   67  A    between atoms: _170  and  _173
REMARK   68  A    between atoms: _173  and  _174
REMARK   69  A    between atoms: _174  and  _175
REMARK   70  A    between atoms: _178  and  _180
REMARK   71  A    between atoms: _180  and  _181
REMARK   72  A    between atoms: _183  and  _185
REMARK   73  A    between atoms: _185  and  _186
REMARK   74  A    between atoms: _185  and  _188
REMARK   75  A    between atoms: _188  and  _189
REMARK   76  A    between atoms: _191  and  _193
REMARK   77  A    between atoms: _193  and  _194
REMARK   78  A    between atoms: _193  and  _196
REMARK   79  A    between atoms: _196  and  _197
REMARK   80  A    between atoms: _203  and  _205
REMARK   81  A    between atoms: _205  and  _206
REMARK   82  A    between atoms: _205  and  _208
REMARK   83  A    between atoms: _208  and  _209
REMARK   84  A    between atoms: _214  and  _216
REMARK   85  A    between atoms: _216  and  _217
REMARK   86  A    between atoms: _216  and  _219
REMARK   87  A    between atoms: _219  and  _220
REMARK   88  A    between atoms: _223  and  _225
REMARK   89  A    between atoms: _225  and  _226
REMARK   90  A    between atoms: _225  and  _228
REMARK   91  A    between atoms: _228  and  _229
REMARK   92  A    between atoms: _231  and  _233
REMARK   93  A    between atoms: _233  and  _234
REMARK   94  A    between atoms: _233  and  _236
REMARK   95  A    between atoms: _236  and  _237
REMARK   96  A    between atoms: _240  and  _242
REMARK   97  A    between atoms: _242  and  _243
REMARK   98  A    between atoms: _245  and  _247
REMARK   99  A    between atoms: _247  and  _248
REMARK  100  A    between atoms: _250  and  _252
REMARK  101  A    between atoms: _252  and  _253
REMARK  102  A    between atoms: _252  and  _255
REMARK  103  A    between atoms: _255  and  _256
REMARK  104  A    between atoms: _266  and  _268
REMARK  105  A    between atoms: _268  and  _269
REMARK  106  A    between atoms: _268  and  _271
REMARK  107  A    between atoms: _271  and  _272
REMARK  108  A    between atoms: _275  and  _277
REMARK  109  A    between atoms: _277  and  _278
REMARK  110  A    between atoms: _277  and  _280
REMARK  111  A    between atoms: _280  and  _281
REMARK  112  A    between atoms: _284  and  _286
REMARK  113  A    between atoms: _286  and  _287
REMARK  114  A    between atoms: _286  and  _289
REMARK  115  A    between atoms: _289  and  _290
REMARK  116  A    between atoms: _292  and  _294
REMARK  117  A    between atoms: _294  and  _295
REMARK  118  A    between atoms: _294  and  _297
REMARK  119  A    between atoms: _297  and  _298
REMARK  120  A    between atoms: _301  and  _303
REMARK  121  A    between atoms: _303  and  _304
REMARK  122  A    between atoms: _303  and  _306
REMARK  123  A    between atoms: _306  and  _307
REMARK  124  A    between atoms: _310  and  _312
REMARK  125  A    between atoms: _312  and  _313
REMARK  126  A    between atoms: _312  and  _315
REMARK  127  A    between atoms: _315  and  _316
REMARK  128  A    between atoms: _319  and  _321
REMARK  129  A    between atoms: _321  and  _322
REMARK  130  A    between atoms: _321  and  _324
REMARK  131  A    between atoms: _324  and  _325
REMARK  132  A    between atoms: _335  and  _337
REMARK  133  A    between atoms: _337  and  _338
REMARK  134  A    between atoms: _337  and  _340
REMARK  135  A    between atoms: _340  and  _341
REMARK  136  A    between atoms: _341  and  _342
REMARK  137  A    between atoms: _345  and  _347
REMARK  138  A    between atoms: _347  and  _348
REMARK  139  A    between atoms: _347  and  _350
REMARK  140  A    between atoms: _350  and  _351
REMARK  141  A    between atoms: _357  and  _359
REMARK  142  A    between atoms: _359  and  _360
REMARK  143  A    between atoms: _363  and  _365
REMARK  144  A    between atoms: _365  and  _366
REMARK  145  A    between atoms: _365  and  _368
REMARK  146  A    between atoms: _368  and  _369
REMARK  147  A    between atoms: _371  and  _373
REMARK  148  A    between atoms: _373  and  _374
REMARK  149  A    between atoms: _377  and  _379
REMARK  150  A    between atoms: _379  and  _380
REMARK  151  A    between atoms: _379  and  _382
REMARK  152  A    between atoms: _382  and  _383
REMARK  153  A    between atoms: _386  and  _388
REMARK  154  A    between atoms: _388  and  _389
REMARK  155  A    between atoms: _388  and  _391
REMARK  156  A    between atoms: _391  and  _392
REMARK  157  A    between atoms: _398  and  _400
REMARK  158  A    between atoms: _400  and  _401
REMARK  159  A    between atoms: _400  and  _403
REMARK  160  A    between atoms: _403  and  _404
REMARK  161  A    between atoms: _404  and  _405
REMARK  162  A    between atoms: _407  and  _409
REMARK  163  A    between atoms: _409  and  _410
REMARK  164  A    between atoms: _409  and  _412
REMARK  165  A    between atoms: _412  and  _413
REMARK  166  A    between atoms: _418  and  _419
REMARK  167  A    between atoms: _421  and  _423
REMARK  168  A    between atoms: _423  and  _424
REMARK  169  A    between atoms: _423  and  _426
REMARK  170  A    between atoms: _426  and  _427
REMARK  171  A    between atoms: _430  and  _432
REMARK  172  A    between atoms: _432  and  _433
REMARK  173  A    between atoms: _432  and  _435
REMARK  174  A    between atoms: _435  and  _436
REMARK  175  A    between atoms: _442  and  _444
REMARK  176  A    between atoms: _444  and  _445
REMARK  177  A    between atoms: _444  and  _447
REMARK  178  A    between atoms: _447  and  _448
REMARK  179  A    between atoms: _448  and  _449
REMARK  180  A    between atoms: _454  and  _456
REMARK  181  A    between atoms: _456  and  _457
REMARK  182  A    between atoms: _456  and  _459
REMARK  183  A    between atoms: _459  and  _460
REMARK  184  A    between atoms: _463  and  _465
REMARK  185  A    between atoms: _465  and  _466
REMARK  186  A    between atoms: _469  and  _471
REMARK  187  A    between atoms: _471  and  _472
REMARK  188  A    between atoms: _471  and  _474
REMARK  189  A    between atoms: _474  and  _475
REMARK  190  A    between atoms: _475  and  _476
REMARK  191  A    between atoms: _478  and  _480
REMARK  192  A    between atoms: _480  and  _481
REMARK  193  A    between atoms: _480  and  _483
REMARK  194  A    between atoms: _483  and  _484
REMARK  195  A    between atoms: _489  and  _490
REMARK  196  A    between atoms: _492  and  _494
REMARK  197  A    between atoms: _494  and  _495
REMARK  198  A    between atoms: _497  and  _499
REMARK  199  A    between atoms: _499  and  _500
REMARK  200  A    between atoms: _499  and  _502
REMARK  201  A    between atoms: _502  and  _503
REMARK  202  A    between atoms: _503  and  _504
REMARK  203  A    between atoms: _504  and  _505
REMARK  204  A    between atoms: _514  and  _516
REMARK  205  A    between atoms: _516  and  _517
REMARK  206  A    between atoms: _516  and  _519
REMARK  207  A    between atoms: _519  and  _520
REMARK  208  A    between atoms: _530  and  _532
REMARK  209  A    between atoms: _532  and  _533
REMARK  210  A    between atoms: _532  and  _535
REMARK  211  A    between atoms: _535  and  _536
REMARK  212  A    between atoms: _536  and  _537
REMARK  213  A    between atoms: _540  and  _542
REMARK  214  A    between atoms: _542  and  _543
REMARK  215  A    between atoms: _542  and  _545
REMARK  216  A    between atoms: _545  and  _546
REMARK  217  A    between atoms: _551  and  _553
REMARK  218  A    between atoms: _553  and  _554
REMARK  219  A    between atoms: _556  and  _558
REMARK  220  A    between atoms: _558  and  _559
REMARK  221  A    between atoms: _558  and  _561
REMARK  222  A    between atoms: _561  and  _562
REMARK  223  A    between atoms: _565  and  _567
REMARK  224  A    between atoms: _567  and  _568
REMARK  225  A    between atoms: _567  and  _570
REMARK  226  A    between atoms: _573  and  _575
REMARK  227  A    between atoms: _575  and  _576
REMARK  228  A    between atoms: _575  and  _578
REMARK  229  A    between atoms: _578  and  _579
REMARK  230  A    between atoms: _582  and  _584
REMARK  231  A    between atoms: _584  and  _585
REMARK  232  A    between atoms: _584  and  _587
REMARK  233  A    between atoms: _587  and  _588
REMARK  234  A    between atoms: _594  and  _596
REMARK  235  A    between atoms: _596  and  _597
REMARK  236  A    between atoms: _596  and  _599
REMARK  237  A    between atoms: _599  and  _600
REMARK  238  A    between atoms: _602  and  _604
REMARK  239  A    between atoms: _604  and  _605
REMARK  240  A    between atoms: _604  and  _607
REMARK  241  A    between atoms: _607  and  _608
REMARK  242  A    between atoms: _618  and  _620
REMARK  243  A    between atoms: _620  and  _621
REMARK  244  A    between atoms: _620  and  _623
REMARK  245  A    between atoms: _623  and  _624
REMARK  246  A    between atoms: _624  and  _625
REMARK  247  A    between atoms: _628  and  _630
REMARK  248  A    between atoms: _630  and  _631
REMARK  249  A    between atoms: _630  and  _633
REMARK  250  A    between atoms: _633  and  _634
REMARK  251  A    between atoms: _637  and  _639
REMARK  252  A    between atoms: _639  and  _640
REMARK                            x       y       z     vdW  Elec       q    Type
REMARK                         _______ _______ _______ _____ _____    ______ ____
ROOT
ATOM      1  O   HOH     1      28.414  80.710 -10.138  0.00  0.00    +0.000 OA
ENDROOT
TORSDOF 0
REMARK  Name = ../refined-set-2016/2wm0/2wm0_pocket.pdb
REMARK  252 active torsions:
REMARK  status: ('A' for Active; 'I' for Inactive)
REMARK    1  A    between atoms: _1  and  _3
REMARK    2  A    between atoms: _3  and  _4
REMARK    3  A    between atoms: _3  and  _6
REMARK    4  A    between atoms: _6  and  _7
REMARK    5  A    between atoms: _12  and  _13
REMARK    6  A    between atoms: _15  and  _17
REMARK    7  A    between atoms: _17  and  _18
REMARK    8  A    between atoms: _17  and  _20
REMARK    9  A    between atoms: _23  and  _25
REMARK   10  A    between atoms: _25  and  _26
REMARK   11  A    between atoms: _25  and  _28
REMARK   12  A    between atoms: _28  and  _29
REMARK   13  A    between atoms: _29  and  _30
REMARK   14  A    between atoms: _33  and  _35
REMARK   15  A    between atoms: _35  and  _36
REMARK   16  A    between atoms: _35  and  _38
REMARK   17  A    between atoms: _38  and  _39
REMARK   18  A    between atoms: _49  and  _51
REMARK   19  A    between atoms: _51  and  _52
REMARK   20  A    between atoms: _54  and  _56
REMARK   21  A    between atoms: _56  and  _57
REMARK   22  A    between atoms: _56  and  _59
REMARK   23  A    between atoms: _59  and  _60
REMARK   24  A    between atoms: _65  and  _66
REMARK   25  A    between atoms: _68  and  _70
REMARK   26  A    between atoms: _70  and  _71
REMARK   27  A    between atoms: _73  and  _75
REMARK   28  A    between atoms: _75  and  _76
REMARK   29  A    between atoms: _75  and  _78
REMARK   30  A    between atoms: _78  and  _79
REMARK   31  A    between atoms: _79  and  _80
REMARK   32  A    between atoms: _80  and  _81
REMARK   33  A    between atoms: _90  and  _92
REMARK   34  A    between atoms: _92  and  _93
REMARK   35  A    between atoms: _92  and  _95
REMARK   36  A    between atoms: _95  and  _96
REMARK   37  A    between atoms: _99  and  _101
REMARK   38  A    between atoms: _101  and  _102
REMARK   39  A    between atoms: _104  and  _106
REMARK   40  A    between atoms: _106  and  _107
REMARK   41  A    between atoms: _106  and  _109
REMARK   42  A    between atoms: _109  and  _110
REMARK   43  A    between atoms: _116  and  _118
REMARK   44  A    between atoms: _118  and  _119
REMARK   45  A    between atoms: _118  and  _121
REMARK   46  A    between atoms: _121  and  _122
REMARK   47  A    between atoms: _126  and  _127
REMARK   48  A    between atoms: _132  and  _134
REMARK   49  A    between atoms: _134  and  _135
REMARK   50  A    between atoms: _134  and  _137
REMARK   51  A    between atoms: _137  and  _138
REMARK   52  A    between atoms: _140  and  _142
REMARK   53  A    between atoms: _142  and  _143
REMARK   54  A    between atoms: _142  and  _145
REMARK   55  A    between atoms: _145  and  _146
REMARK   56  A    between atoms: _149  and  _151
REMARK   57  A    between atoms: _151  and  _152
REMARK   58  A    between atoms: _151  and  _154
REMARK   59  A    between atoms: _154  and  _155
REMARK   60  A    between atoms: _155  and  _156
REMARK   61  A    between atoms: _159  and  _161
REMARK   62  A    between atoms: _161  and  _162
REMARK   63  A    between atoms: _161  and  _164
REMARK   64  A    between atoms: _164  and  _165
REMARK   65  A    between atoms: _168  and  _170
REMARK   66  A    between atoms: _170  and  _171
REMARK   67  A    between atoms: _170  and  _173
REMARK   68  A    between atoms: _173  and  _174
REMARK   69  A    between atoms: _174  and  _175
REMARK   70  A    between atoms: _178  and  _180
REMARK   71  A    between atoms: _180  and  _181
REMARK   72  A    between atoms: _183  and  _185
REMARK   73  A    between atoms: _185  and  _186
REMARK   74  A    between atoms: _185  and  _188
REMARK   75  A    between atoms: _188  and  _189
REMARK   76  A    between atoms: _191  and  _193
REMARK   77  A    between atoms: _193  and  _194
REMARK   78  A    between atoms: _193  and  _196
REMARK   79  A    between atoms: _196  and  _197
REMARK   80  A    between atoms: _203  and  _205
REMARK   81  A    between atoms: _205  and  _206
REMARK   82  A    between atoms: _205  and  _208
REMARK   83  A    between atoms: _208  and  _209
REMARK   84  A    between atoms: _214  and  _216
REMARK   85  A    between atoms: _216  and  _217
REMARK   86  A    between atoms: _216  and  _219
REMARK   87  A    between atoms: _219  and  _220
REMARK   88  A    between atoms: _223  and  _225
REMARK   89  A    between atoms: _225  and  _226
REMARK   90  A    between atoms: _225  and  _228
REMARK   91  A    between atoms: _228  and  _229
REMARK   92  A    between atoms: _231  and  _233
REMARK   93  A    between atoms: _233  and  _234
REMARK   94  A    between atoms: _233  and  _236
REMARK   95  A    between atoms: _236  and  _237
REMARK   96  A    between atoms: _240  and  _242
REMARK   97  A    between atoms: _242  and  _243
REMARK   98  A    between atoms: _245  and  _247
REMARK   99  A    between atoms: _247  and  _248
REMARK  100  A    between atoms: _250  and  _252
REMARK  101  A    between atoms: _252  and  _253
REMARK  102  A    between atoms: _252  and  _255
REMARK  103  A    between atoms: _255  and  _256
REMARK  104  A    between atoms: _266  and  _268
REMARK  105  A    between atoms: _268  and  _269
REMARK  106  A    between atoms: _268  and  _271
REMARK  107  A    between atoms: _271  and  _272
REMARK  108  A    between atoms: _275  and  _277
REMARK  109  A    between atoms: _277  and  _278
REMARK  110  A    between atoms: _277  and  _280
REMARK  111  A    between atoms: _280  and  _281
REMARK  112  A    between atoms: _284  and  _286
REMARK  113  A    between atoms: _286  and  _287
REMARK  114  A    between atoms: _286  and  _289
REMARK  115  A    between atoms: _289  and  _290
REMARK  116  A    between atoms: _292  and  _294
REMARK  117  A    between atoms: _294  and  _295
REMARK  118  A    between atoms: _294  and  _297
REMARK  119  A    between atoms: _297  and  _298
REMARK  120  A    between atoms: _301  and  _303
REMARK  121  A    between atoms: _303  and  _304
REMARK  122  A    between atoms: _303  and  _306
REMARK  123  A    between atoms: _306  and  _307
REMARK  124  A    between atoms: _310  and  _312
REMARK  125  A    between atoms: _312  and  _313
REMARK  126  A    between atoms: _312  and  _315
REMARK  127  A    between atoms: _315  and  _316
REMARK  128  A    between atoms: _319  and  _321
REMARK  129  A    between atoms: _321  and  _322
REMARK  130  A    between atoms: _321  and  _324
REMARK  131  A    between atoms: _324  and  _325
REMARK  132  A    between atoms: _335  and  _337
REMARK  133  A    between atoms: _337  and  _338
REMARK  134  A    between atoms: _337  and  _340
REMARK  135  A    between atoms: _340  and  _341
REMARK  136  A    between atoms: _341  and  _342
REMARK  137  A    between atoms: _345  and  _347
REMARK  138  A    between atoms: _347  and  _348
REMARK  139  A    between atoms: _347  and  _350
REMARK  140  A    between atoms: _350  and  _351
REMARK  141  A    between atoms: _357  and  _359
REMARK  142  A    between atoms: _359  and  _360
REMARK  143  A    between atoms: _363  and  _365
REMARK  144  A    between atoms: _365  and  _366
REMARK  145  A    between atoms: _365  and  _368
REMARK  146  A    between atoms: _368  and  _369
REMARK  147  A    between atoms: _371  and  _373
REMARK  148  A    between atoms: _373  and  _374
REMARK  149  A    between atoms: _377  and  _379
REMARK  150  A    between atoms: _379  and  _380
REMARK  151  A    between atoms: _379  and  _382
REMARK  152  A    between atoms: _382  and  _383
REMARK  153  A    between atoms: _386  and  _388
REMARK  154  A    between atoms: _388  and  _389
REMARK  155  A    between atoms: _388  and  _391
REMARK  156  A    between atoms: _391  and  _392
REMARK  157  A    between atoms: _398  and  _400
REMARK  158  A    between atoms: _400  and  _401
REMARK  159  A    between atoms: _400  and  _403
REMARK  160  A    between atoms: _403  and  _404
REMARK  161  A    between atoms: _404  and  _405
REMARK  162  A    between atoms: _407  and  _409
REMARK  163  A    between atoms: _409  and  _410
REMARK  164  A    between atoms: _409  and  _412
REMARK  165  A    between atoms: _412  and  _413
REMARK  166  A    between atoms: _418  and  _419
REMARK  167  A    between atoms: _421  and  _423
REMARK  168  A    between atoms: _423  and  _424
REMARK  169  A    between atoms: _423  and  _426
REMARK  170  A    between atoms: _426  and  _427
REMARK  171  A    between atoms: _430  and  _432
REMARK  172  A    between atoms: _432  and  _433
REMARK  173  A    between atoms: _432  and  _435
REMARK  174  A    between atoms: _435  and  _436
REMARK  175  A    between atoms: _442  and  _444
REMARK  176  A    between atoms: _444  and  _445
REMARK  177  A    between atoms: _444  and  _447
REMARK  178  A    between atoms: _447  and  _448
REMARK  179  A    between atoms: _448  and  _449
REMARK  180  A    between atoms: _454  and  _456
REMARK  181  A    between atoms: _456  and  _457
REMARK  182  A    between atoms: _456  and  _459
REMARK  183  A    between atoms: _459  and  _460
REMARK  184  A    between atoms: _463  and  _465
REMARK  185  A    between atoms: _465  and  _466
REMARK  186  A    between atoms: _469  and  _471
REMARK  187  A    between atoms: _471  and  _472
REMARK  188  A    between atoms: _471  and  _474
REMARK  189  A    between atoms: _474  and  _475
REMARK  190  A    between atoms: _475  and  _476
REMARK  191  A    between atoms: _478  and  _480
REMARK  192  A    between atoms: _480  and  _481
REMARK  193  A    between atoms: _480  and  _483
REMARK  194  A    between atoms: _483  and  _484
REMARK  195  A    between atoms: _489  and  _490
REMARK  196  A    between atoms: _492  and  _494
REMARK  197  A    between atoms: _494  and  _495
REMARK  198  A    between atoms: _497  and  _499
REMARK  199  A    between atoms: _499  and  _500
REMARK  200  A    between atoms: _499  and  _502
REMARK  201  A    between atoms: _502  and  _503
REMARK  202  A    between atoms: _503  and  _504
REMARK  203  A    between atoms: _504  and  _505
REMARK  204  A    between atoms: _514  and  _516
REMARK  205  A    between atoms: _516  and  _517
REMARK  206  A    between atoms: _516  and  _519
REMARK  207  A    between atoms: _519  and  _520
REMARK  208  A    between atoms: _530  and  _532
REMARK  209  A    between atoms: _532  and  _533
REMARK  210  A    between atoms: _532  and  _535
REMARK  211  A    between atoms: _535  and  _536
REMARK  212  A    between atoms: _536  and  _537
REMARK  213  A    between atoms: _540  and  _542
REMARK  214  A    between atoms: _542  and  _543
REMARK  215  A    between atoms: _542  and  _545
REMARK  216  A    between atoms: _545  and  _546
REMARK  217  A    between atoms: _551  and  _553
REMARK  218  A    between atoms: _553  and  _554
REMARK  219  A    between atoms: _556  and  _558
REMARK  220  A    between atoms: _558  and  _559
REMARK  221  A    between atoms: _558  and  _561
REMARK  222  A    between atoms: _561  and  _562
REMARK  223  A    between atoms: _565  and  _567
REMARK  224  A    between atoms: _567  and  _568
REMARK  225  A    between atoms: _567  and  _570
REMARK  226  A    between atoms: _573  and  _575
REMARK  227  A    between atoms: _575  and  _576
REMARK  228  A    between atoms: _575  and  _578
REMARK  229  A    between atoms: _578  and  _579
REMARK  230  A    between atoms: _582  and  _584
REMARK  231  A    between atoms: _584  and  _585
REMARK  232  A    between atoms: _584  and  _587
REMARK  233  A    between atoms: _587  and  _588
REMARK  234  A    between atoms: _594  and  _596
REMARK  235  A    between atoms: _596  and  _597
REMARK  236  A    between atoms: _596  and  _599
REMARK  237  A    between atoms: _599  and  _600
REMARK  238  A    between atoms: _602  and  _604
REMARK  239  A    between atoms: _604  and  _605
REMARK  240  A    between atoms: _604  and  _607
REMARK  241  A    between atoms: _607  and  _608
REMARK  242  A    between atoms: _618  and  _620
REMARK  243  A    between atoms: _620  and  _621
REMARK  244  A    between atoms: _620  and  _623
REMARK  245  A    between atoms: _623  and  _624
REMARK  246  A    between atoms: _624  and  _625
REMARK  247  A    between atoms: _628  and  _630
REMARK  248  A    between atoms: _630  and  _631
REMARK  249  A    between atoms: _630  and  _633
REMARK  250  A    between atoms: _633  and  _634
REMARK  251  A    between atoms: _637  and  _639
REMARK  252  A    between atoms: _639  and  _640
REMARK                            x       y       z     vdW  Elec       q    Type
REMARK                         _______ _______ _______ _____ _____    ______ ____
ROOT
ATOM      1  O   HOH     1      29.871  81.152  -7.847  0.00  0.00    +0.000 OA
ENDROOT
TORSDOF 0
REMARK  Name = ../refined-set-2016/2wm0/2wm0_pocket.pdb
REMARK  252 active torsions:
REMARK  status: ('A' for Active; 'I' for Inactive)
REMARK    1  A    between atoms: _1  and  _3
REMARK    2  A    between atoms: _3  and  _4
REMARK    3  A    between atoms: _3  and  _6
REMARK    4  A    between atoms: _6  and  _7
REMARK    5  A    between atoms: _12  and  _13
REMARK    6  A    between atoms: _15  and  _17
REMARK    7  A    between atoms: _17  and  _18
REMARK    8  A    between atoms: _17  and  _20
REMARK    9  A    between atoms: _23  and  _25
REMARK   10  A    between atoms: _25  and  _26
REMARK   11  A    between atoms: _25  and  _28
REMARK   12  A    between atoms: _28  and  _29
REMARK   13  A    between atoms: _29  and  _30
REMARK   14  A    between atoms: _33  and  _35
REMARK   15  A    between atoms: _35  and  _36
REMARK   16  A    between atoms: _35  and  _38
REMARK   17  A    between atoms: _38  and  _39
REMARK   18  A    between atoms: _49  and  _51
REMARK   19  A    between atoms: _51  and  _52
REMARK   20  A    between atoms: _54  and  _56
REMARK   21  A    between atoms: _56  and  _57
REMARK   22  A    between atoms: _56  and  _59
REMARK   23  A    between atoms: _59  and  _60
REMARK   24  A    between atoms: _65  and  _66
REMARK   25  A    between atoms: _68  and  _70
REMARK   26  A    between atoms: _70  and  _71
REMARK   27  A    between atoms: _73  and  _75
REMARK   28  A    between atoms: _75  and  _76
REMARK   29  A    between atoms: _75  and  _78
REMARK   30  A    between atoms: _78  and  _79
REMARK   31  A    between atoms: _79  and  _80
REMARK   32  A    between atoms: _80  and  _81
REMARK   33  A    between atoms: _90  and  _92
REMARK   34  A    between atoms: _92  and  _93
REMARK   35  A    between atoms: _92  and  _95
REMARK   36  A    between atoms: _95  and  _96
REMARK   37  A    between atoms: _99  and  _101
REMARK   38  A    between atoms: _101  and  _102
REMARK   39  A    between atoms: _104  and  _106
REMARK   40  A    between atoms: _106  and  _107
REMARK   41  A    between atoms: _106  and  _109
REMARK   42  A    between atoms: _109  and  _110
REMARK   43  A    between atoms: _116  and  _118
REMARK   44  A    between atoms: _118  and  _119
REMARK   45  A    between atoms: _118  and  _121
REMARK   46  A    between atoms: _121  and  _122
REMARK   47  A    between atoms: _126  and  _127
REMARK   48  A    between atoms: _132  and  _134
REMARK   49  A    between atoms: _134  and  _135
REMARK   50  A    between atoms: _134  and  _137
REMARK   51  A    between atoms: _137  and  _138
REMARK   52  A    between atoms: _140  and  _142
REMARK   53  A    between atoms: _142  and  _143
REMARK   54  A    between atoms: _142  and  _145
REMARK   55  A    between atoms: _145  and  _146
REMARK   56  A    between atoms: _149  and  _151
REMARK   57  A    between atoms: _151  and  _152
REMARK   58  A    between atoms: _151  and  _154
REMARK   59  A    between atoms: _154  and  _155
REMARK   60  A    between atoms: _155  and  _156
REMARK   61  A    between atoms: _159  and  _161
REMARK   62  A    between atoms: _161  and  _162
REMARK   63  A    between atoms: _161  and  _164
REMARK   64  A    between atoms: _164  and  _165
REMARK   65  A    between atoms: _168  and  _170
REMARK   66  A    between atoms: _170  and  _171
REMARK   67  A    between atoms: _170  and  _173
REMARK   68  A    between atoms: _173  and  _174
REMARK   69  A    between atoms: _174  and  _175
REMARK   70  A    between atoms: _178  and  _180
REMARK   71  A    between atoms: _180  and  _181
REMARK   72  A    between atoms: _183  and  _185
REMARK   73  A    between atoms: _185  and  _186
REMARK   74  A    between atoms: _185  and  _188
REMARK   75  A    between atoms: _188  and  _189
REMARK   76  A    between atoms: _191  and  _193
REMARK   77  A    between atoms: _193  and  _194
REMARK   78  A    between atoms: _193  and  _196
REMARK   79  A    between atoms: _196  and  _197
REMARK   80  A    between atoms: _203  and  _205
REMARK   81  A    between atoms: _205  and  _206
REMARK   82  A    between atoms: _205  and  _208
REMARK   83  A    between atoms: _208  and  _209
REMARK   84  A    between atoms: _214  and  _216
REMARK   85  A    between atoms: _216  and  _217
REMARK   86  A    between atoms: _216  and  _219
REMARK   87  A    between atoms: _219  and  _220
REMARK   88  A    between atoms: _223  and  _225
REMARK   89  A    between atoms: _225  and  _226
REMARK   90  A    between atoms: _225  and  _228
REMARK   91  A    between atoms: _228  and  _229
REMARK   92  A    between atoms: _231  and  _233
REMARK   93  A    between atoms: _233  and  _234
REMARK   94  A    between atoms: _233  and  _236
REMARK   95  A    between atoms: _236  and  _237
REMARK   96  A    between atoms: _240  and  _242
REMARK   97  A    between atoms: _242  and  _243
REMARK   98  A    between atoms: _245  and  _247
REMARK   99  A    between atoms: _247  and  _248
REMARK  100  A    between atoms: _250  and  _252
REMARK  101  A    between atoms: _252  and  _253
REMARK  102  A    between atoms: _252  and  _255
REMARK  103  A    between atoms: _255  and  _256
REMARK  104  A    between atoms: _266  and  _268
REMARK  105  A    between atoms: _268  and  _269
REMARK  106  A    between atoms: _268  and  _271
REMARK  107  A    between atoms: _271  and  _272
REMARK  108  A    between atoms: _275  and  _277
REMARK  109  A    between atoms: _277  and  _278
REMARK  110  A    between atoms: _277  and  _280
REMARK  111  A    between atoms: _280  and  _281
REMARK  112  A    between atoms: _284  and  _286
REMARK  113  A    between atoms: _286  and  _287
REMARK  114  A    between atoms: _286  and  _289
REMARK  115  A    between atoms: _289  and  _290
REMARK  116  A    between atoms: _292  and  _294
REMARK  117  A    between atoms: _294  and  _295
REMARK  118  A    between atoms: _294  and  _297
REMARK  119  A    between atoms: _297  and  _298
REMARK  120  A    between atoms: _301  and  _303
REMARK  121  A    between atoms: _303  and  _304
REMARK  122  A    between atoms: _303  and  _306
REMARK  123  A    between atoms: _306  and  _307
REMARK  124  A    between atoms: _310  and  _312
REMARK  125  A    between atoms: _312  and  _313
REMARK  126  A    between atoms: _312  and  _315
REMARK  127  A    between atoms: _315  and  _316
REMARK  128  A    between atoms: _319  and  _321
REMARK  129  A    between atoms: _321  and  _322
REMARK  130  A    between atoms: _321  and  _324
REMARK  131  A    between atoms: _324  and  _325
REMARK  132  A    between atoms: _335  and  _337
REMARK  133  A    between atoms: _337  and  _338
REMARK  134  A    between atoms: _337  and  _340
REMARK  135  A    between atoms: _340  and  _341
REMARK  136  A    between atoms: _341  and  _342
REMARK  137  A    between atoms: _345  and  _347
REMARK  138  A    between atoms: _347  and  _348
REMARK  139  A    between atoms: _347  and  _350
REMARK  140  A    between atoms: _350  and  _351
REMARK  141  A    between atoms: _357  and  _359
REMARK  142  A    between atoms: _359  and  _360
REMARK  143  A    between atoms: _363  and  _365
REMARK  144  A    between atoms: _365  and  _366
REMARK  145  A    between atoms: _365  and  _368
REMARK  146  A    between atoms: _368  and  _369
REMARK  147  A    between atoms: _371  and  _373
REMARK  148  A    between atoms: _373  and  _374
REMARK  149  A    between atoms: _377  and  _379
REMARK  150  A    between atoms: _379  and  _380
REMARK  151  A    between atoms: _379  and  _382
REMARK  152  A    between atoms: _382  and  _383
REMARK  153  A    between atoms: _386  and  _388
REMARK  154  A    between atoms: _388  and  _389
REMARK  155  A    between atoms: _388  and  _391
REMARK  156  A    between atoms: _391  and  _392
REMARK  157  A    between atoms: _398  and  _400
REMARK  158  A    between atoms: _400  and  _401
REMARK  159  A    between atoms: _400  and  _403
REMARK  160  A    between atoms: _403  and  _404
REMARK  161  A    between atoms: _404  and  _405
REMARK  162  A    between atoms: _407  and  _409
REMARK  163  A    between atoms: _409  and  _410
REMARK  164  A    between atoms: _409  and  _412
REMARK  165  A    between atoms: _412  and  _413
REMARK  166  A    between atoms: _418  and  _419
REMARK  167  A    between atoms: _421  and  _423
REMARK  168  A    between atoms: _423  and  _424
REMARK  169  A    between atoms: _423  and  _426
REMARK  170  A    between atoms: _426  and  _427
REMARK  171  A    between atoms: _430  and  _432
REMARK  172  A    between atoms: _432  and  _433
REMARK  173  A    between atoms: _432  and  _435
REMARK  174  A    between atoms: _435  and  _436
REMARK  175  A    between atoms: _442  and  _444
REMARK  176  A    between atoms: _444  and  _445
REMARK  177  A    between atoms: _444  and  _447
REMARK  178  A    between atoms: _447  and  _448
REMARK  179  A    between atoms: _448  and  _449
REMARK  180  A    between atoms: _454  and  _456
REMARK  181  A    between atoms: _456  and  _457
REMARK  182  A    between atoms: _456  and  _459
REMARK  183  A    between atoms: _459  and  _460
REMARK  184  A    between atoms: _463  and  _465
REMARK  185  A    between atoms: _465  and  _466
REMARK  186  A    between atoms: _469  and  _471
REMARK  187  A    between atoms: _471  and  _472
REMARK  188  A    between atoms: _471  and  _474
REMARK  189  A    between atoms: _474  and  _475
REMARK  190  A    between atoms: _475  and  _476
REMARK  191  A    between atoms: _478  and  _480
REMARK  192  A    between atoms: _480  and  _481
REMARK  193  A    between atoms: _480  and  _483
REMARK  194  A    between atoms: _483  and  _484
REMARK  195  A    between atoms: _489  and  _490
REMARK  196  A    between atoms: _492  and  _494
REMARK  197  A    between atoms: _494  and  _495
REMARK  198  A    between atoms: _497  and  _499
REMARK  199  A    between atoms: _499  and  _500
REMARK  200  A    between atoms: _499  and  _502
REMARK  201  A    between atoms: _502  and  _503
REMARK  202  A    between atoms: _503  and  _504
REMARK  203  A    between atoms: _504  and  _505
REMARK  204  A    between atoms: _514  and  _516
REMARK  205  A    between atoms: _516  and  _517
REMARK  206  A    between atoms: _516  and  _519
REMARK  207  A    between atoms: _519  and  _520
REMARK  208  A    between atoms: _530  and  _532
REMARK  209  A    between atoms: _532  and  _533
REMARK  210  A    between atoms: _532  and  _535
REMARK  211  A    between atoms: _535  and  _536
REMARK  212  A    between atoms: _536  and  _537
REMARK  213  A    between atoms: _540  and  _542
REMARK  214  A    between atoms: _542  and  _543
REMARK  215  A    between atoms: _542  and  _545
REMARK  216  A    between atoms: _545  and  _546
REMARK  217  A    between atoms: _551  and  _553
REMARK  218  A    between atoms: _553  and  _554
REMARK  219  A    between atoms: _556  and  _558
REMARK  220  A    between atoms: _558  and  _559
REMARK  221  A    between atoms: _558  and  _561
REMARK  222  A    between atoms: _561  and  _562
REMARK  223  A    between atoms: _565  and  _567
REMARK  224  A    between atoms: _567  and  _568
REMARK  225  A    between atoms: _567  and  _570
REMARK  226  A    between atoms: _573  and  _575
REMARK  227  A    between atoms: _575  and  _576
REMARK  228  A    between atoms: _575  and  _578
REMARK  229  A    between atoms: _578  and  _579
REMARK  230  A    between atoms: _582  and  _584
REMARK  231  A    between atoms: _584  and  _585
REMARK  232  A    between atoms: _584  and  _587
REMARK  233  A    between atoms: _587  and  _588
REMARK  234  A    between atoms: _594  and  _596
REMARK  235  A    between atoms: _596  and  _597
REMARK  236  A    between atoms: _596  and  _599
REMARK  237  A    between atoms: _599  and  _600
REMARK  238  A    between atoms: _602  and  _604
REMARK  239  A    between atoms: _604  and  _605
REMARK  240  A    between atoms: _604  and  _607
REMARK  241  A    between atoms: _607  and  _608
REMARK  242  A    between atoms: _618  and  _620
REMARK  243  A    between atoms: _620  and  _621
REMARK  244  A    between atoms: _620  and  _623
REMARK  245  A    between atoms: _623  and  _624
REMARK  246  A    between atoms: _624  and  _625
REMARK  247  A    between atoms: _628  and  _630
REMARK  248  A    between atoms: _630  and  _631
REMARK  249  A    between atoms: _630  and  _633
REMARK  250  A    between atoms: _633  and  _634
REMARK  251  A    between atoms: _637  and  _639
REMARK  252  A    between atoms: _639  and  _640
REMARK                            x       y       z     vdW  Elec       q    Type
REMARK                         _______ _______ _______ _____ _____    ______ ____
ROOT
ATOM      1  O   HOH     1      33.314  80.246  -7.081  0.00  0.00    +0.000 OA
ENDROOT
TORSDOF 0
REMARK  Name = ../refined-set-2016/2wm0/2wm0_pocket.pdb
REMARK  252 active torsions:
REMARK  status: ('A' for Active; 'I' for Inactive)
REMARK    1  A    between atoms: _1  and  _3
REMARK    2  A    between atoms: _3  and  _4
REMARK    3  A    between atoms: _3  and  _6
REMARK    4  A    between atoms: _6  and  _7
REMARK    5  A    between atoms: _12  and  _13
REMARK    6  A    between atoms: _15  and  _17
REMARK    7  A    between atoms: _17  and  _18
REMARK    8  A    between atoms: _17  and  _20
REMARK    9  A    between atoms: _23  and  _25
REMARK   10  A    between atoms: _25  and  _26
REMARK   11  A    between atoms: _25  and  _28
REMARK   12  A    between atoms: _28  and  _29
REMARK   13  A    between atoms: _29  and  _30
REMARK   14  A    between atoms: _33  and  _35
REMARK   15  A    between atoms: _35  and  _36
REMARK   16  A    between atoms: _35  and  _38
REMARK   17  A    between atoms: _38  and  _39
REMARK   18  A    between atoms: _49  and  _51
REMARK   19  A    between atoms: _51  and  _52
REMARK   20  A    between atoms: _54  and  _56
REMARK   21  A    between atoms: _56  and  _57
REMARK   22  A    between atoms: _56  and  _59
REMARK   23  A    between atoms: _59  and  _60
REMARK   24  A    between atoms: _65  and  _66
REMARK   25  A    between atoms: _68  and  _70
REMARK   26  A    between atoms: _70  and  _71
REMARK   27  A    between atoms: _73  and  _75
REMARK   28  A    between atoms: _75  and  _76
REMARK   29  A    between atoms: _75  and  _78
REMARK   30  A    between atoms: _78  and  _79
REMARK   31  A    between atoms: _79  and  _80
REMARK   32  A    between atoms: _80  and  _81
REMARK   33  A    between atoms: _90  and  _92
REMARK   34  A    between atoms: _92  and  _93
REMARK   35  A    between atoms: _92  and  _95
REMARK   36  A    between atoms: _95  and  _96
REMARK   37  A    between atoms: _99  and  _101
REMARK   38  A    between atoms: _101  and  _102
REMARK   39  A    between atoms: _104  and  _106
REMARK   40  A    between atoms: _106  and  _107
REMARK   41  A    between atoms: _106  and  _109
REMARK   42  A    between atoms: _109  and  _110
REMARK   43  A    between atoms: _116  and  _118
REMARK   44  A    between atoms: _118  and  _119
REMARK   45  A    between atoms: _118  and  _121
REMARK   46  A    between atoms: _121  and  _122
REMARK   47  A    between atoms: _126  and  _127
REMARK   48  A    between atoms: _132  and  _134
REMARK   49  A    between atoms: _134  and  _135
REMARK   50  A    between atoms: _134  and  _137
REMARK   51  A    between atoms: _137  and  _138
REMARK   52  A    between atoms: _140  and  _142
REMARK   53  A    between atoms: _142  and  _143
REMARK   54  A    between atoms: _142  and  _145
REMARK   55  A    between atoms: _145  and  _146
REMARK   56  A    between atoms: _149  and  _151
REMARK   57  A    between atoms: _151  and  _152
REMARK   58  A    between atoms: _151  and  _154
REMARK   59  A    between atoms: _154  and  _155
REMARK   60  A    between atoms: _155  and  _156
REMARK   61  A    between atoms: _159  and  _161
REMARK   62  A    between atoms: _161  and  _162
REMARK   63  A    between atoms: _161  and  _164
REMARK   64  A    between atoms: _164  and  _165
REMARK   65  A    between atoms: _168  and  _170
REMARK   66  A    between atoms: _170  and  _171
REMARK   67  A    between atoms: _170  and  _173
REMARK   68  A    between atoms: _173  and  _174
REMARK   69  A    between atoms: _174  and  _175
REMARK   70  A    between atoms: _178  and  _180
REMARK   71  A    between atoms: _180  and  _181
REMARK   72  A    between atoms: _183  and  _185
REMARK   73  A    between atoms: _185  and  _186
REMARK   74  A    between atoms: _185  and  _188
REMARK   75  A    between atoms: _188  and  _189
REMARK   76  A    between atoms: _191  and  _193
REMARK   77  A    between atoms: _193  and  _194
REMARK   78  A    between atoms: _193  and  _196
REMARK   79  A    between atoms: _196  and  _197
REMARK   80  A    between atoms: _203  and  _205
REMARK   81  A    between atoms: _205  and  _206
REMARK   82  A    between atoms: _205  and  _208
REMARK   83  A    between atoms: _208  and  _209
REMARK   84  A    between atoms: _214  and  _216
REMARK   85  A    between atoms: _216  and  _217
REMARK   86  A    between atoms: _216  and  _219
REMARK   87  A    between atoms: _219  and  _220
REMARK   88  A    between atoms: _223  and  _225
REMARK   89  A    between atoms: _225  and  _226
REMARK   90  A    between atoms: _225  and  _228
REMARK   91  A    between atoms: _228  and  _229
REMARK   92  A    between atoms: _231  and  _233
REMARK   93  A    between atoms: _233  and  _234
REMARK   94  A    between atoms: _233  and  _236
REMARK   95  A    between atoms: _236  and  _237
REMARK   96  A    between atoms: _240  and  _242
REMARK   97  A    between atoms: _242  and  _243
REMARK   98  A    between atoms: _245  and  _247
REMARK   99  A    between atoms: _247  and  _248
REMARK  100  A    between atoms: _250  and  _252
REMARK  101  A    between atoms: _252  and  _253
REMARK  102  A    between atoms: _252  and  _255
REMARK  103  A    between atoms: _255  and  _256
REMARK  104  A    between atoms: _266  and  _268
REMARK  105  A    between atoms: _268  and  _269
REMARK  106  A    between atoms: _268  and  _271
REMARK  107  A    between atoms: _271  and  _272
REMARK  108  A    between atoms: _275  and  _277
REMARK  109  A    between atoms: _277  and  _278
REMARK  110  A    between atoms: _277  and  _280
REMARK  111  A    between atoms: _280  and  _281
REMARK  112  A    between atoms: _284  and  _286
REMARK  113  A    between atoms: _286  and  _287
REMARK  114  A    between atoms: _286  and  _289
REMARK  115  A    between atoms: _289  and  _290
REMARK  116  A    between atoms: _292  and  _294
REMARK  117  A    between atoms: _294  and  _295
REMARK  118  A    between atoms: _294  and  _297
REMARK  119  A    between atoms: _297  and  _298
REMARK  120  A    between atoms: _301  and  _303
REMARK  121  A    between atoms: _303  and  _304
REMARK  122  A    between atoms: _303  and  _306
REMARK  123  A    between atoms: _306  and  _307
REMARK  124  A    between atoms: _310  and  _312
REMARK  125  A    between atoms: _312  and  _313
REMARK  126  A    between atoms: _312  and  _315
REMARK  127  A    between atoms: _315  and  _316
REMARK  128  A    between atoms: _319  and  _321
REMARK  129  A    between atoms: _321  and  _322
REMARK  130  A    between atoms: _321  and  _324
REMARK  131  A    between atoms: _324  and  _325
REMARK  132  A    between atoms: _335  and  _337
REMARK  133  A    between atoms: _337  and  _338
REMARK  134  A    between atoms: _337  and  _340
REMARK  135  A    between atoms: _340  and  _341
REMARK  136  A    between atoms: _341  and  _342
REMARK  137  A    between atoms: _345  and  _347
REMARK  138  A    between atoms: _347  and  _348
REMARK  139  A    between atoms: _347  and  _350
REMARK  140  A    between atoms: _350  and  _351
REMARK  141  A    between atoms: _357  and  _359
REMARK  142  A    between atoms: _359  and  _360
REMARK  143  A    between atoms: _363  and  _365
REMARK  144  A    between atoms: _365  and  _366
REMARK  145  A    between atoms: _365  and  _368
REMARK  146  A    between atoms: _368  and  _369
REMARK  147  A    between atoms: _371  and  _373
REMARK  148  A    between atoms: _373  and  _374
REMARK  149  A    between atoms: _377  and  _379
REMARK  150  A    between atoms: _379  and  _380
REMARK  151  A    between atoms: _379  and  _382
REMARK  152  A    between atoms: _382  and  _383
REMARK  153  A    between atoms: _386  and  _388
REMARK  154  A    between atoms: _388  and  _389
REMARK  155  A    between atoms: _388  and  _391
REMARK  156  A    between atoms: _391  and  _392
REMARK  157  A    between atoms: _398  and  _400
REMARK  158  A    between atoms: _400  and  _401
REMARK  159  A    between atoms: _400  and  _403
REMARK  160  A    between atoms: _403  and  _404
REMARK  161  A    between atoms: _404  and  _405
REMARK  162  A    between atoms: _407  and  _409
REMARK  163  A    between atoms: _409  and  _410
REMARK  164  A    between atoms: _409  and  _412
REMARK  165  A    between atoms: _412  and  _413
REMARK  166  A    between atoms: _418  and  _419
REMARK  167  A    between atoms: _421  and  _423
REMARK  168  A    between atoms: _423  and  _424
REMARK  169  A    between atoms: _423  and  _426
REMARK  170  A    between atoms: _426  and  _427
REMARK  171  A    between atoms: _430  and  _432
REMARK  172  A    between atoms: _432  and  _433
REMARK  173  A    between atoms: _432  and  _435
REMARK  174  A    between atoms: _435  and  _436
REMARK  175  A    between atoms: _442  and  _444
REMARK  176  A    between atoms: _444  and  _445
REMARK  177  A    between atoms: _444  and  _447
REMARK  178  A    between atoms: _447  and  _448
REMARK  179  A    between atoms: _448  and  _449
REMARK  180  A    between atoms: _454  and  _456
REMARK  181  A    between atoms: _456  and  _457
REMARK  182  A    between atoms: _456  and  _459
REMARK  183  A    between atoms: _459  and  _460
REMARK  184  A    between atoms: _463  and  _465
REMARK  185  A    between atoms: _465  and  _466
REMARK  186  A    between atoms: _469  and  _471
REMARK  187  A    between atoms: _471  and  _472
REMARK  188  A    between atoms: _471  and  _474
REMARK  189  A    between atoms: _474  and  _475
REMARK  190  A    between atoms: _475  and  _476
REMARK  191  A    between atoms: _478  and  _480
REMARK  192  A    between atoms: _480  and  _481
REMARK  193  A    between atoms: _480  and  _483
REMARK  194  A    between atoms: _483  and  _484
REMARK  195  A    between atoms: _489  and  _490
REMARK  196  A    between atoms: _492  and  _494
REMARK  197  A    between atoms: _494  and  _495
REMARK  198  A    between atoms: _497  and  _499
REMARK  199  A    between atoms: _499  and  _500
REMARK  200  A    between atoms: _499  and  _502
REMARK  201  A    between atoms: _502  and  _503
REMARK  202  A    between atoms: _503  and  _504
REMARK  203  A    between atoms: _504  and  _505
REMARK  204  A    between atoms: _514  and  _516
REMARK  205  A    between atoms: _516  and  _517
REMARK  206  A    between atoms: _516  and  _519
REMARK  207  A    between atoms: _519  and  _520
REMARK  208  A    between atoms: _530  and  _532
REMARK  209  A    between atoms: _532  and  _533
REMARK  210  A    between atoms: _532  and  _535
REMARK  211  A    between atoms: _535  and  _536
REMARK  212  A    between atoms: _536  and  _537
REMARK  213  A    between atoms: _540  and  _542
REMARK  214  A    between atoms: _542  and  _543
REMARK  215  A    between atoms: _542  and  _545
REMARK  216  A    between atoms: _545  and  _546
REMARK  217  A    between atoms: _551  and  _553
REMARK  218  A    between atoms: _553  and  _554
REMARK  219  A    between atoms: _556  and  _558
REMARK  220  A    between atoms: _558  and  _559
REMARK  221  A    between atoms: _558  and  _561
REMARK  222  A    between atoms: _561  and  _562
REMARK  223  A    between atoms: _565  and  _567
REMARK  224  A    between atoms: _567  and  _568
REMARK  225  A    between atoms: _567  and  _570
REMARK  226  A    between atoms: _573  and  _575
REMARK  227  A    between atoms: _575  and  _576
REMARK  228  A    between atoms: _575  and  _578
REMARK  229  A    between atoms: _578  and  _579
REMARK  230  A    between atoms: _582  and  _584
REMARK  231  A    between atoms: _584  and  _585
REMARK  232  A    between atoms: _584  and  _587
REMARK  233  A    between atoms: _587  and  _588
REMARK  234  A    between atoms: _594  and  _596
REMARK  235  A    between atoms: _596  and  _597
REMARK  236  A    between atoms: _596  and  _599
REMARK  237  A    between atoms: _599  and  _600
REMARK  238  A    between atoms: _602  and  _604
REMARK  239  A    between atoms: _604  and  _605
REMARK  240  A    between atoms: _604  and  _607
REMARK  241  A    between atoms: _607  and  _608
REMARK  242  A    between atoms: _618  and  _620
REMARK  243  A    between atoms: _620  and  _621
REMARK  244  A    between atoms: _620  and  _623
REMARK  245  A    between atoms: _623  and  _624
REMARK  246  A    between atoms: _624  and  _625
REMARK  247  A    between atoms: _628  and  _630
REMARK  248  A    between atoms: _630  and  _631
REMARK  249  A    between atoms: _630  and  _633
REMARK  250  A    between atoms: _633  and  _634
REMARK  251  A    between atoms: _637  and  _639
REMARK  252  A    between atoms: _639  and  _640
REMARK                            x       y       z     vdW  Elec       q    Type
REMARK                         _______ _______ _______ _____ _____    ______ ____
ROOT
ATOM      1  O   HOH     1      33.217  66.656  -9.594  0.00  0.00    +0.000 OA
ENDROOT
TORSDOF 0
REMARK  Name = ../refined-set-2016/2wm0/2wm0_pocket.pdb
REMARK  252 active torsions:
REMARK  status: ('A' for Active; 'I' for Inactive)
REMARK    1  A    between atoms: _1  and  _3
REMARK    2  A    between atoms: _3  and  _4
REMARK    3  A    between atoms: _3  and  _6
REMARK    4  A    between atoms: _6  and  _7
REMARK    5  A    between atoms: _12  and  _13
REMARK    6  A    between atoms: _15  and  _17
REMARK    7  A    between atoms: _17  and  _18
REMARK    8  A    between atoms: _17  and  _20
REMARK    9  A    between atoms: _23  and  _25
REMARK   10  A    between atoms: _25  and  _26
REMARK   11  A    between atoms: _25  and  _28
REMARK   12  A    between atoms: _28  and  _29
REMARK   13  A    between atoms: _29  and  _30
REMARK   14  A    between atoms: _33  and  _35
REMARK   15  A    between atoms: _35  and  _36
REMARK   16  A    between atoms: _35  and  _38
REMARK   17  A    between atoms: _38  and  _39
REMARK   18  A    between atoms: _49  and  _51
REMARK   19  A    between atoms: _51  and  _52
REMARK   20  A    between atoms: _54  and  _56
REMARK   21  A    between atoms: _56  and  _57
REMARK   22  A    between atoms: _56  and  _59
REMARK   23  A    between atoms: _59  and  _60
REMARK   24  A    between atoms: _65  and  _66
REMARK   25  A    between atoms: _68  and  _70
REMARK   26  A    between atoms: _70  and  _71
REMARK   27  A    between atoms: _73  and  _75
REMARK   28  A    between atoms: _75  and  _76
REMARK   29  A    between atoms: _75  and  _78
REMARK   30  A    between atoms: _78  and  _79
REMARK   31  A    between atoms: _79  and  _80
REMARK   32  A    between atoms: _80  and  _81
REMARK   33  A    between atoms: _90  and  _92
REMARK   34  A    between atoms: _92  and  _93
REMARK   35  A    between atoms: _92  and  _95
REMARK   36  A    between atoms: _95  and  _96
REMARK   37  A    between atoms: _99  and  _101
REMARK   38  A    between atoms: _101  and  _102
REMARK   39  A    between atoms: _104  and  _106
REMARK   40  A    between atoms: _106  and  _107
REMARK   41  A    between atoms: _106  and  _109
REMARK   42  A    between atoms: _109  and  _110
REMARK   43  A    between atoms: _116  and  _118
REMARK   44  A    between atoms: _118  and  _119
REMARK   45  A    between atoms: _118  and  _121
REMARK   46  A    between atoms: _121  and  _122
REMARK   47  A    between atoms: _126  and  _127
REMARK   48  A    between atoms: _132  and  _134
REMARK   49  A    between atoms: _134  and  _135
REMARK   50  A    between atoms: _134  and  _137
REMARK   51  A    between atoms: _137  and  _138
REMARK   52  A    between atoms: _140  and  _142
REMARK   53  A    between atoms: _142  and  _143
REMARK   54  A    between atoms: _142  and  _145
REMARK   55  A    between atoms: _145  and  _146
REMARK   56  A    between atoms: _149  and  _151
REMARK   57  A    between atoms: _151  and  _152
REMARK   58  A    between atoms: _151  and  _154
REMARK   59  A    between atoms: _154  and  _155
REMARK   60  A    between atoms: _155  and  _156
REMARK   61  A    between atoms: _159  and  _161
REMARK   62  A    between atoms: _161  and  _162
REMARK   63  A    between atoms: _161  and  _164
REMARK   64  A    between atoms: _164  and  _165
REMARK   65  A    between atoms: _168  and  _170
REMARK   66  A    between atoms: _170  and  _171
REMARK   67  A    between atoms: _170  and  _173
REMARK   68  A    between atoms: _173  and  _174
REMARK   69  A    between atoms: _174  and  _175
REMARK   70  A    between atoms: _178  and  _180
REMARK   71  A    between atoms: _180  and  _181
REMARK   72  A    between atoms: _183  and  _185
REMARK   73  A    between atoms: _185  and  _186
REMARK   74  A    between atoms: _185  and  _188
REMARK   75  A    between atoms: _188  and  _189
REMARK   76  A    between atoms: _191  and  _193
REMARK   77  A    between atoms: _193  and  _194
REMARK   78  A    between atoms: _193  and  _196
REMARK   79  A    between atoms: _196  and  _197
REMARK   80  A    between atoms: _203  and  _205
REMARK   81  A    between atoms: _205  and  _206
REMARK   82  A    between atoms: _205  and  _208
REMARK   83  A    between atoms: _208  and  _209
REMARK   84  A    between atoms: _214  and  _216
REMARK   85  A    between atoms: _216  and  _217
REMARK   86  A    between atoms: _216  and  _219
REMARK   87  A    between atoms: _219  and  _220
REMARK   88  A    between atoms: _223  and  _225
REMARK   89  A    between atoms: _225  and  _226
REMARK   90  A    between atoms: _225  and  _228
REMARK   91  A    between atoms: _228  and  _229
REMARK   92  A    between atoms: _231  and  _233
REMARK   93  A    between atoms: _233  and  _234
REMARK   94  A    between atoms: _233  and  _236
REMARK   95  A    between atoms: _236  and  _237
REMARK   96  A    between atoms: _240  and  _242
REMARK   97  A    between atoms: _242  and  _243
REMARK   98  A    between atoms: _245  and  _247
REMARK   99  A    between atoms: _247  and  _248
REMARK  100  A    between atoms: _250  and  _252
REMARK  101  A    between atoms: _252  and  _253
REMARK  102  A    between atoms: _252  and  _255
REMARK  103  A    between atoms: _255  and  _256
REMARK  104  A    between atoms: _266  and  _268
REMARK  105  A    between atoms: _268  and  _269
REMARK  106  A    between atoms: _268  and  _271
REMARK  107  A    between atoms: _271  and  _272
REMARK  108  A    between atoms: _275  and  _277
REMARK  109  A    between atoms: _277  and  _278
REMARK  110  A    between atoms: _277  and  _280
REMARK  111  A    between atoms: _280  and  _281
REMARK  112  A    between atoms: _284  and  _286
REMARK  113  A    between atoms: _286  and  _287
REMARK  114  A    between atoms: _286  and  _289
REMARK  115  A    between atoms: _289  and  _290
REMARK  116  A    between atoms: _292  and  _294
REMARK  117  A    between atoms: _294  and  _295
REMARK  118  A    between atoms: _294  and  _297
REMARK  119  A    between atoms: _297  and  _298
REMARK  120  A    between atoms: _301  and  _303
REMARK  121  A    between atoms: _303  and  _304
REMARK  122  A    between atoms: _303  and  _306
REMARK  123  A    between atoms: _306  and  _307
REMARK  124  A    between atoms: _310  and  _312
REMARK  125  A    between atoms: _312  and  _313
REMARK  126  A    between atoms: _312  and  _315
REMARK  127  A    between atoms: _315  and  _316
REMARK  128  A    between atoms: _319  and  _321
REMARK  129  A    between atoms: _321  and  _322
REMARK  130  A    between atoms: _321  and  _324
REMARK  131  A    between atoms: _324  and  _325
REMARK  132  A    between atoms: _335  and  _337
REMARK  133  A    between atoms: _337  and  _338
REMARK  134  A    between atoms: _337  and  _340
REMARK  135  A    between atoms: _340  and  _341
REMARK  136  A    between atoms: _341  and  _342
REMARK  137  A    between atoms: _345  and  _347
REMARK  138  A    between atoms: _347  and  _348
REMARK  139  A    between atoms: _347  and  _350
REMARK  140  A    between atoms: _350  and  _351
REMARK  141  A    between atoms: _357  and  _359
REMARK  142  A    between atoms: _359  and  _360
REMARK  143  A    between atoms: _363  and  _365
REMARK  144  A    between atoms: _365  and  _366
REMARK  145  A    between atoms: _365  and  _368
REMARK  146  A    between atoms: _368  and  _369
REMARK  147  A    between atoms: _371  and  _373
REMARK  148  A    between atoms: _373  and  _374
REMARK  149  A    between atoms: _377  and  _379
REMARK  150  A    between atoms: _379  and  _380
REMARK  151  A    between atoms: _379  and  _382
REMARK  152  A    between atoms: _382  and  _383
REMARK  153  A    between atoms: _386  and  _388
REMARK  154  A    between atoms: _388  and  _389
REMARK  155  A    between atoms: _388  and  _391
REMARK  156  A    between atoms: _391  and  _392
REMARK  157  A    between atoms: _398  and  _400
REMARK  158  A    between atoms: _400  and  _401
REMARK  159  A    between atoms: _400  and  _403
REMARK  160  A    between atoms: _403  and  _404
REMARK  161  A    between atoms: _404  and  _405
REMARK  162  A    between atoms: _407  and  _409
REMARK  163  A    between atoms: _409  and  _410
REMARK  164  A    between atoms: _409  and  _412
REMARK  165  A    between atoms: _412  and  _413
REMARK  166  A    between atoms: _418  and  _419
REMARK  167  A    between atoms: _421  and  _423
REMARK  168  A    between atoms: _423  and  _424
REMARK  169  A    between atoms: _423  and  _426
REMARK  170  A    between atoms: _426  and  _427
REMARK  171  A    between atoms: _430  and  _432
REMARK  172  A    between atoms: _432  and  _433
REMARK  173  A    between atoms: _432  and  _435
REMARK  174  A    between atoms: _435  and  _436
REMARK  175  A    between atoms: _442  and  _444
REMARK  176  A    between atoms: _444  and  _445
REMARK  177  A    between atoms: _444  and  _447
REMARK  178  A    between atoms: _447  and  _448
REMARK  179  A    between atoms: _448  and  _449
REMARK  180  A    between atoms: _454  and  _456
REMARK  181  A    between atoms: _456  and  _457
REMARK  182  A    between atoms: _456  and  _459
REMARK  183  A    between atoms: _459  and  _460
REMARK  184  A    between atoms: _463  and  _465
REMARK  185  A    between atoms: _465  and  _466
REMARK  186  A    between atoms: _469  and  _471
REMARK  187  A    between atoms: _471  and  _472
REMARK  188  A    between atoms: _471  and  _474
REMARK  189  A    between atoms: _474  and  _475
REMARK  190  A    between atoms: _475  and  _476
REMARK  191  A    between atoms: _478  and  _480
REMARK  192  A    between atoms: _480  and  _481
REMARK  193  A    between atoms: _480  and  _483
REMARK  194  A    between atoms: _483  and  _484
REMARK  195  A    between atoms: _489  and  _490
REMARK  196  A    between atoms: _492  and  _494
REMARK  197  A    between atoms: _494  and  _495
REMARK  198  A    between atoms: _497  and  _499
REMARK  199  A    between atoms: _499  and  _500
REMARK  200  A    between atoms: _499  and  _502
REMARK  201  A    between atoms: _502  and  _503
REMARK  202  A    between atoms: _503  and  _504
REMARK  203  A    between atoms: _504  and  _505
REMARK  204  A    between atoms: _514  and  _516
REMARK  205  A    between atoms: _516  and  _517
REMARK  206  A    between atoms: _516  and  _519
REMARK  207  A    between atoms: _519  and  _520
REMARK  208  A    between atoms: _530  and  _532
REMARK  209  A    between atoms: _532  and  _533
REMARK  210  A    between atoms: _532  and  _535
REMARK  211  A    between atoms: _535  and  _536
REMARK  212  A    between atoms: _536  and  _537
REMARK  213  A    between atoms: _540  and  _542
REMARK  214  A    between atoms: _542  and  _543
REMARK  215  A    between atoms: _542  and  _545
REMARK  216  A    between atoms: _545  and  _546
REMARK  217  A    between atoms: _551  and  _553
REMARK  218  A    between atoms: _553  and  _554
REMARK  219  A    between atoms: _556  and  _558
REMARK  220  A    between atoms: _558  and  _559
REMARK  221  A    between atoms: _558  and  _561
REMARK  222  A    between atoms: _561  and  _562
REMARK  223  A    between atoms: _565  and  _567
REMARK  224  A    between atoms: _567  and  _568
REMARK  225  A    between atoms: _567  and  _570
REMARK  226  A    between atoms: _573  and  _575
REMARK  227  A    between atoms: _575  and  _576
REMARK  228  A    between atoms: _575  and  _578
REMARK  229  A    between atoms: _578  and  _579
REMARK  230  A    between atoms: _582  and  _584
REMARK  231  A    between atoms: _584  and  _585
REMARK  232  A    between atoms: _584  and  _587
REMARK  233  A    between atoms: _587  and  _588
REMARK  234  A    between atoms: _594  and  _596
REMARK  235  A    between atoms: _596  and  _597
REMARK  236  A    between atoms: _596  and  _599
REMARK  237  A    between atoms: _599  and  _600
REMARK  238  A    between atoms: _602  and  _604
REMARK  239  A    between atoms: _604  and  _605
REMARK  240  A    between atoms: _604  and  _607
REMARK  241  A    between atoms: _607  and  _608
REMARK  242  A    between atoms: _618  and  _620
REMARK  243  A    between atoms: _620  and  _621
REMARK  244  A    between atoms: _620  and  _623
REMARK  245  A    between atoms: _623  and  _624
REMARK  246  A    between atoms: _624  and  _625
REMARK  247  A    between atoms: _628  and  _630
REMARK  248  A    between atoms: _630  and  _631
REMARK  249  A    between atoms: _630  and  _633
REMARK  250  A    between atoms: _633  and  _634
REMARK  251  A    between atoms: _637  and  _639
REMARK  252  A    between atoms: _639  and  _640
REMARK                            x       y       z     vdW  Elec       q    Type
REMARK                         _______ _______ _______ _____ _____    ______ ____
ROOT
ATOM      1  O   HOH     1      27.637  71.964  -9.638  0.00  0.00    +0.000 OA
ENDROOT
TORSDOF 0
REMARK  Name = ../refined-set-2016/2wm0/2wm0_pocket.pdb
REMARK  252 active torsions:
REMARK  status: ('A' for Active; 'I' for Inactive)
REMARK    1  A    between atoms: _1  and  _3
REMARK    2  A    between atoms: _3  and  _4
REMARK    3  A    between atoms: _3  and  _6
REMARK    4  A    between atoms: _6  and  _7
REMARK    5  A    between atoms: _12  and  _13
REMARK    6  A    between atoms: _15  and  _17
REMARK    7  A    between atoms: _17  and  _18
REMARK    8  A    between atoms: _17  and  _20
REMARK    9  A    between atoms: _23  and  _25
REMARK   10  A    between atoms: _25  and  _26
REMARK   11  A    between atoms: _25  and  _28
REMARK   12  A    between atoms: _28  and  _29
REMARK   13  A    between atoms: _29  and  _30
REMARK   14  A    between atoms: _33  and  _35
REMARK   15  A    between atoms: _35  and  _36
REMARK   16  A    between atoms: _35  and  _38
REMARK   17  A    between atoms: _38  and  _39
REMARK   18  A    between atoms: _49  and  _51
REMARK   19  A    between atoms: _51  and  _52
REMARK   20  A    between atoms: _54  and  _56
REMARK   21  A    between atoms: _56  and  _57
REMARK   22  A    between atoms: _56  and  _59
REMARK   23  A    between atoms: _59  and  _60
REMARK   24  A    between atoms: _65  and  _66
REMARK   25  A    between atoms: _68  and  _70
REMARK   26  A    between atoms: _70  and  _71
REMARK   27  A    between atoms: _73  and  _75
REMARK   28  A    between atoms: _75  and  _76
REMARK   29  A    between atoms: _75  and  _78
REMARK   30  A    between atoms: _78  and  _79
REMARK   31  A    between atoms: _79  and  _80
REMARK   32  A    between atoms: _80  and  _81
REMARK   33  A    between atoms: _90  and  _92
REMARK   34  A    between atoms: _92  and  _93
REMARK   35  A    between atoms: _92  and  _95
REMARK   36  A    between atoms: _95  and  _96
REMARK   37  A    between atoms: _99  and  _101
REMARK   38  A    between atoms: _101  and  _102
REMARK   39  A    between atoms: _104  and  _106
REMARK   40  A    between atoms: _106  and  _107
REMARK   41  A    between atoms: _106  and  _109
REMARK   42  A    between atoms: _109  and  _110
REMARK   43  A    between atoms: _116  and  _118
REMARK   44  A    between atoms: _118  and  _119
REMARK   45  A    between atoms: _118  and  _121
REMARK   46  A    between atoms: _121  and  _122
REMARK   47  A    between atoms: _126  and  _127
REMARK   48  A    between atoms: _132  and  _134
REMARK   49  A    between atoms: _134  and  _135
REMARK   50  A    between atoms: _134  and  _137
REMARK   51  A    between atoms: _137  and  _138
REMARK   52  A    between atoms: _140  and  _142
REMARK   53  A    between atoms: _142  and  _143
REMARK   54  A    between atoms: _142  and  _145
REMARK   55  A    between atoms: _145  and  _146
REMARK   56  A    between atoms: _149  and  _151
REMARK   57  A    between atoms: _151  and  _152
REMARK   58  A    between atoms: _151  and  _154
REMARK   59  A    between atoms: _154  and  _155
REMARK   60  A    between atoms: _155  and  _156
REMARK   61  A    between atoms: _159  and  _161
REMARK   62  A    between atoms: _161  and  _162
REMARK   63  A    between atoms: _161  and  _164
REMARK   64  A    between atoms: _164  and  _165
REMARK   65  A    between atoms: _168  and  _170
REMARK   66  A    between atoms: _170  and  _171
REMARK   67  A    between atoms: _170  and  _173
REMARK   68  A    between atoms: _173  and  _174
REMARK   69  A    between atoms: _174  and  _175
REMARK   70  A    between atoms: _178  and  _180
REMARK   71  A    between atoms: _180  and  _181
REMARK   72  A    between atoms: _183  and  _185
REMARK   73  A    between atoms: _185  and  _186
REMARK   74  A    between atoms: _185  and  _188
REMARK   75  A    between atoms: _188  and  _189
REMARK   76  A    between atoms: _191  and  _193
REMARK   77  A    between atoms: _193  and  _194
REMARK   78  A    between atoms: _193  and  _196
REMARK   79  A    between atoms: _196  and  _197
REMARK   80  A    between atoms: _203  and  _205
REMARK   81  A    between atoms: _205  and  _206
REMARK   82  A    between atoms: _205  and  _208
REMARK   83  A    between atoms: _208  and  _209
REMARK   84  A    between atoms: _214  and  _216
REMARK   85  A    between atoms: _216  and  _217
REMARK   86  A    between atoms: _216  and  _219
REMARK   87  A    between atoms: _219  and  _220
REMARK   88  A    between atoms: _223  and  _225
REMARK   89  A    between atoms: _225  and  _226
REMARK   90  A    between atoms: _225  and  _228
REMARK   91  A    between atoms: _228  and  _229
REMARK   92  A    between atoms: _231  and  _233
REMARK   93  A    between atoms: _233  and  _234
REMARK   94  A    between atoms: _233  and  _236
REMARK   95  A    between atoms: _236  and  _237
REMARK   96  A    between atoms: _240  and  _242
REMARK   97  A    between atoms: _242  and  _243
REMARK   98  A    between atoms: _245  and  _247
REMARK   99  A    between atoms: _247  and  _248
REMARK  100  A    between atoms: _250  and  _252
REMARK  101  A    between atoms: _252  and  _253
REMARK  102  A    between atoms: _252  and  _255
REMARK  103  A    between atoms: _255  and  _256
REMARK  104  A    between atoms: _266  and  _268
REMARK  105  A    between atoms: _268  and  _269
REMARK  106  A    between atoms: _268  and  _271
REMARK  107  A    between atoms: _271  and  _272
REMARK  108  A    between atoms: _275  and  _277
REMARK  109  A    between atoms: _277  and  _278
REMARK  110  A    between atoms: _277  and  _280
REMARK  111  A    between atoms: _280  and  _281
REMARK  112  A    between atoms: _284  and  _286
REMARK  113  A    between atoms: _286  and  _287
REMARK  114  A    between atoms: _286  and  _289
REMARK  115  A    between atoms: _289  and  _290
REMARK  116  A    between atoms: _292  and  _294
REMARK  117  A    between atoms: _294  and  _295
REMARK  118  A    between atoms: _294  and  _297
REMARK  119  A    between atoms: _297  and  _298
REMARK  120  A    between atoms: _301  and  _303
REMARK  121  A    between atoms: _303  and  _304
REMARK  122  A    between atoms: _303  and  _306
REMARK  123  A    between atoms: _306  and  _307
REMARK  124  A    between atoms: _310  and  _312
REMARK  125  A    between atoms: _312  and  _313
REMARK  126  A    between atoms: _312  and  _315
REMARK  127  A    between atoms: _315  and  _316
REMARK  128  A    between atoms: _319  and  _321
REMARK  129  A    between atoms: _321  and  _322
REMARK  130  A    between atoms: _321  and  _324
REMARK  131  A    between atoms: _324  and  _325
REMARK  132  A    between atoms: _335  and  _337
REMARK  133  A    between atoms: _337  and  _338
REMARK  134  A    between atoms: _337  and  _340
REMARK  135  A    between atoms: _340  and  _341
REMARK  136  A    between atoms: _341  and  _342
REMARK  137  A    between atoms: _345  and  _347
REMARK  138  A    between atoms: _347  and  _348
REMARK  139  A    between atoms: _347  and  _350
REMARK  140  A    between atoms: _350  and  _351
REMARK  141  A    between atoms: _357  and  _359
REMARK  142  A    between atoms: _359  and  _360
REMARK  143  A    between atoms: _363  and  _365
REMARK  144  A    between atoms: _365  and  _366
REMARK  145  A    between atoms: _365  and  _368
REMARK  146  A    between atoms: _368  and  _369
REMARK  147  A    between atoms: _371  and  _373
REMARK  148  A    between atoms: _373  and  _374
REMARK  149  A    between atoms: _377  and  _379
REMARK  150  A    between atoms: _379  and  _380
REMARK  151  A    between atoms: _379  and  _382
REMARK  152  A    between atoms: _382  and  _383
REMARK  153  A    between atoms: _386  and  _388
REMARK  154  A    between atoms: _388  and  _389
REMARK  155  A    between atoms: _388  and  _391
REMARK  156  A    between atoms: _391  and  _392
REMARK  157  A    between atoms: _398  and  _400
REMARK  158  A    between atoms: _400  and  _401
REMARK  159  A    between atoms: _400  and  _403
REMARK  160  A    between atoms: _403  and  _404
REMARK  161  A    between atoms: _404  and  _405
REMARK  162  A    between atoms: _407  and  _409
REMARK  163  A    between atoms: _409  and  _410
REMARK  164  A    between atoms: _409  and  _412
REMARK  165  A    between atoms: _412  and  _413
REMARK  166  A    between atoms: _418  and  _419
REMARK  167  A    between atoms: _421  and  _423
REMARK  168  A    between atoms: _423  and  _424
REMARK  169  A    between atoms: _423  and  _426
REMARK  170  A    between atoms: _426  and  _427
REMARK  171  A    between atoms: _430  and  _432
REMARK  172  A    between atoms: _432  and  _433
REMARK  173  A    between atoms: _432  and  _435
REMARK  174  A    between atoms: _435  and  _436
REMARK  175  A    between atoms: _442  and  _444
REMARK  176  A    between atoms: _444  and  _445
REMARK  177  A    between atoms: _444  and  _447
REMARK  178  A    between atoms: _447  and  _448
REMARK  179  A    between atoms: _448  and  _449
REMARK  180  A    between atoms: _454  and  _456
REMARK  181  A    between atoms: _456  and  _457
REMARK  182  A    between atoms: _456  and  _459
REMARK  183  A    between atoms: _459  and  _460
REMARK  184  A    between atoms: _463  and  _465
REMARK  185  A    between atoms: _465  and  _466
REMARK  186  A    between atoms: _469  and  _471
REMARK  187  A    between atoms: _471  and  _472
REMARK  188  A    between atoms: _471  and  _474
REMARK  189  A    between atoms: _474  and  _475
REMARK  190  A    between atoms: _475  and  _476
REMARK  191  A    between atoms: _478  and  _480
REMARK  192  A    between atoms: _480  and  _481
REMARK  193  A    between atoms: _480  and  _483
REMARK  194  A    between atoms: _483  and  _484
REMARK  195  A    between atoms: _489  and  _490
REMARK  196  A    between atoms: _492  and  _494
REMARK  197  A    between atoms: _494  and  _495
REMARK  198  A    between atoms: _497  and  _499
REMARK  199  A    between atoms: _499  and  _500
REMARK  200  A    between atoms: _499  and  _502
REMARK  201  A    between atoms: _502  and  _503
REMARK  202  A    between atoms: _503  and  _504
REMARK  203  A    between atoms: _504  and  _505
REMARK  204  A    between atoms: _514  and  _516
REMARK  205  A    between atoms: _516  and  _517
REMARK  206  A    between atoms: _516  and  _519
REMARK  207  A    between atoms: _519  and  _520
REMARK  208  A    between atoms: _530  and  _532
REMARK  209  A    between atoms: _532  and  _533
REMARK  210  A    between atoms: _532  and  _535
REMARK  211  A    between atoms: _535  and  _536
REMARK  212  A    between atoms: _536  and  _537
REMARK  213  A    between atoms: _540  and  _542
REMARK  214  A    between atoms: _542  and  _543
REMARK  215  A    between atoms: _542  and  _545
REMARK  216  A    between atoms: _545  and  _546
REMARK  217  A    between atoms: _551  and  _553
REMARK  218  A    between atoms: _553  and  _554
REMARK  219  A    between atoms: _556  and  _558
REMARK  220  A    between atoms: _558  and  _559
REMARK  221  A    between atoms: _558  and  _561
REMARK  222  A    between atoms: _561  and  _562
REMARK  223  A    between atoms: _565  and  _567
REMARK  224  A    between atoms: _567  and  _568
REMARK  225  A    between atoms: _567  and  _570
REMARK  226  A    between atoms: _573  and  _575
REMARK  227  A    between atoms: _575  and  _576
REMARK  228  A    between atoms: _575  and  _578
REMARK  229  A    between atoms: _578  and  _579
REMARK  230  A    between atoms: _582  and  _584
REMARK  231  A    between atoms: _584  and  _585
REMARK  232  A    between atoms: _584  and  _587
REMARK  233  A    between atoms: _587  and  _588
REMARK  234  A    between atoms: _594  and  _596
REMARK  235  A    between atoms: _596  and  _597
REMARK  236  A    between atoms: _596  and  _599
REMARK  237  A    between atoms: _599  and  _600
REMARK  238  A    between atoms: _602  and  _604
REMARK  239  A    between atoms: _604  and  _605
REMARK  240  A    between atoms: _604  and  _607
REMARK  241  A    between atoms: _607  and  _608
REMARK  242  A    between atoms: _618  and  _620
REMARK  243  A    between atoms: _620  and  _621
REMARK  244  A    between atoms: _620  and  _623
REMARK  245  A    between atoms: _623  and  _624
REMARK  246  A    between atoms: _624  and  _625
REMARK  247  A    between atoms: _628  and  _630
REMARK  248  A    between atoms: _630  and  _631
REMARK  249  A    between atoms: _630  and  _633
REMARK  250  A    between atoms: _633  and  _634
REMARK  251  A    between atoms: _637  and  _639
REMARK  252  A    between atoms: _639  and  _640
REMARK                            x       y       z     vdW  Elec       q    Type
REMARK                         _______ _______ _______ _____ _____    ______ ____
ROOT
ATOM      1  O   HOH     1      31.406  70.401 -14.328  0.00  0.00    +0.000 OA
ENDROOT
TORSDOF 0
REMARK  Name = ../refined-set-2016/2wm0/2wm0_pocket.pdb
REMARK  252 active torsions:
REMARK  status: ('A' for Active; 'I' for Inactive)
REMARK    1  A    between atoms: _1  and  _3
REMARK    2  A    between atoms: _3  and  _4
REMARK    3  A    between atoms: _3  and  _6
REMARK    4  A    between atoms: _6  and  _7
REMARK    5  A    between atoms: _12  and  _13
REMARK    6  A    between atoms: _15  and  _17
REMARK    7  A    between atoms: _17  and  _18
REMARK    8  A    between atoms: _17  and  _20
REMARK    9  A    between atoms: _23  and  _25
REMARK   10  A    between atoms: _25  and  _26
REMARK   11  A    between atoms: _25  and  _28
REMARK   12  A    between atoms: _28  and  _29
REMARK   13  A    between atoms: _29  and  _30
REMARK   14  A    between atoms: _33  and  _35
REMARK   15  A    between atoms: _35  and  _36
REMARK   16  A    between atoms: _35  and  _38
REMARK   17  A    between atoms: _38  and  _39
REMARK   18  A    between atoms: _49  and  _51
REMARK   19  A    between atoms: _51  and  _52
REMARK   20  A    between atoms: _54  and  _56
REMARK   21  A    between atoms: _56  and  _57
REMARK   22  A    between atoms: _56  and  _59
REMARK   23  A    between atoms: _59  and  _60
REMARK   24  A    between atoms: _65  and  _66
REMARK   25  A    between atoms: _68  and  _70
REMARK   26  A    between atoms: _70  and  _71
REMARK   27  A    between atoms: _73  and  _75
REMARK   28  A    between atoms: _75  and  _76
REMARK   29  A    between atoms: _75  and  _78
REMARK   30  A    between atoms: _78  and  _79
REMARK   31  A    between atoms: _79  and  _80
REMARK   32  A    between atoms: _80  and  _81
REMARK   33  A    between atoms: _90  and  _92
REMARK   34  A    between atoms: _92  and  _93
REMARK   35  A    between atoms: _92  and  _95
REMARK   36  A    between atoms: _95  and  _96
REMARK   37  A    between atoms: _99  and  _101
REMARK   38  A    between atoms: _101  and  _102
REMARK   39  A    between atoms: _104  and  _106
REMARK   40  A    between atoms: _106  and  _107
REMARK   41  A    between atoms: _106  and  _109
REMARK   42  A    between atoms: _109  and  _110
REMARK   43  A    between atoms: _116  and  _118
REMARK   44  A    between atoms: _118  and  _119
REMARK   45  A    between atoms: _118  and  _121
REMARK   46  A    between atoms: _121  and  _122
REMARK   47  A    between atoms: _126  and  _127
REMARK   48  A    between atoms: _132  and  _134
REMARK   49  A    between atoms: _134  and  _135
REMARK   50  A    between atoms: _134  and  _137
REMARK   51  A    between atoms: _137  and  _138
REMARK   52  A    between atoms: _140  and  _142
REMARK   53  A    between atoms: _142  and  _143
REMARK   54  A    between atoms: _142  and  _145
REMARK   55  A    between atoms: _145  and  _146
REMARK   56  A    between atoms: _149  and  _151
REMARK   57  A    between atoms: _151  and  _152
REMARK   58  A    between atoms: _151  and  _154
REMARK   59  A    between atoms: _154  and  _155
REMARK   60  A    between atoms: _155  and  _156
REMARK   61  A    between atoms: _159  and  _161
REMARK   62  A    between atoms: _161  and  _162
REMARK   63  A    between atoms: _161  and  _164
REMARK   64  A    between atoms: _164  and  _165
REMARK   65  A    between atoms: _168  and  _170
REMARK   66  A    between atoms: _170  and  _171
REMARK   67  A    between atoms: _170  and  _173
REMARK   68  A    between atoms: _173  and  _174
REMARK   69  A    between atoms: _174  and  _175
REMARK   70  A    between atoms: _178  and  _180
REMARK   71  A    between atoms: _180  and  _181
REMARK   72  A    between atoms: _183  and  _185
REMARK   73  A    between atoms: _185  and  _186
REMARK   74  A    between atoms: _185  and  _188
REMARK   75  A    between atoms: _188  and  _189
REMARK   76  A    between atoms: _191  and  _193
REMARK   77  A    between atoms: _193  and  _194
REMARK   78  A    between atoms: _193  and  _196
REMARK   79  A    between atoms: _196  and  _197
REMARK   80  A    between atoms: _203  and  _205
REMARK   81  A    between atoms: _205  and  _206
REMARK   82  A    between atoms: _205  and  _208
REMARK   83  A    between atoms: _208  and  _209
REMARK   84  A    between atoms: _214  and  _216
REMARK   85  A    between atoms: _216  and  _217
REMARK   86  A    between atoms: _216  and  _219
REMARK   87  A    between atoms: _219  and  _220
REMARK   88  A    between atoms: _223  and  _225
REMARK   89  A    between atoms: _225  and  _226
REMARK   90  A    between atoms: _225  and  _228
REMARK   91  A    between atoms: _228  and  _229
REMARK   92  A    between atoms: _231  and  _233
REMARK   93  A    between atoms: _233  and  _234
REMARK   94  A    between atoms: _233  and  _236
REMARK   95  A    between atoms: _236  and  _237
REMARK   96  A    between atoms: _240  and  _242
REMARK   97  A    between atoms: _242  and  _243
REMARK   98  A    between atoms: _245  and  _247
REMARK   99  A    between atoms: _247  and  _248
REMARK  100  A    between atoms: _250  and  _252
REMARK  101  A    between atoms: _252  and  _253
REMARK  102  A    between atoms: _252  and  _255
REMARK  103  A    between atoms: _255  and  _256
REMARK  104  A    between atoms: _266  and  _268
REMARK  105  A    between atoms: _268  and  _269
REMARK  106  A    between atoms: _268  and  _271
REMARK  107  A    between atoms: _271  and  _272
REMARK  108  A    between atoms: _275  and  _277
REMARK  109  A    between atoms: _277  and  _278
REMARK  110  A    between atoms: _277  and  _280
REMARK  111  A    between atoms: _280  and  _281
REMARK  112  A    between atoms: _284  and  _286
REMARK  113  A    between atoms: _286  and  _287
REMARK  114  A    between atoms: _286  and  _289
REMARK  115  A    between atoms: _289  and  _290
REMARK  116  A    between atoms: _292  and  _294
REMARK  117  A    between atoms: _294  and  _295
REMARK  118  A    between atoms: _294  and  _297
REMARK  119  A    between atoms: _297  and  _298
REMARK  120  A    between atoms: _301  and  _303
REMARK  121  A    between atoms: _303  and  _304
REMARK  122  A    between atoms: _303  and  _306
REMARK  123  A    between atoms: _306  and  _307
REMARK  124  A    between atoms: _310  and  _312
REMARK  125  A    between atoms: _312  and  _313
REMARK  126  A    between atoms: _312  and  _315
REMARK  127  A    between atoms: _315  and  _316
REMARK  128  A    between atoms: _319  and  _321
REMARK  129  A    between atoms: _321  and  _322
REMARK  130  A    between atoms: _321  and  _324
REMARK  131  A    between atoms: _324  and  _325
REMARK  132  A    between atoms: _335  and  _337
REMARK  133  A    between atoms: _337  and  _338
REMARK  134  A    between atoms: _337  and  _340
REMARK  135  A    between atoms: _340  and  _341
REMARK  136  A    between atoms: _341  and  _342
REMARK  137  A    between atoms: _345  and  _347
REMARK  138  A    between atoms: _347  and  _348
REMARK  139  A    between atoms: _347  and  _350
REMARK  140  A    between atoms: _350  and  _351
REMARK  141  A    between atoms: _357  and  _359
REMARK  142  A    between atoms: _359  and  _360
REMARK  143  A    between atoms: _363  and  _365
REMARK  144  A    between atoms: _365  and  _366
REMARK  145  A    between atoms: _365  and  _368
REMARK  146  A    between atoms: _368  and  _369
REMARK  147  A    between atoms: _371  and  _373
REMARK  148  A    between atoms: _373  and  _374
REMARK  149  A    between atoms: _377  and  _379
REMARK  150  A    between atoms: _379  and  _380
REMARK  151  A    between atoms: _379  and  _382
REMARK  152  A    between atoms: _382  and  _383
REMARK  153  A    between atoms: _386  and  _388
REMARK  154  A    between atoms: _388  and  _389
REMARK  155  A    between atoms: _388  and  _391
REMARK  156  A    between atoms: _391  and  _392
REMARK  157  A    between atoms: _398  and  _400
REMARK  158  A    between atoms: _400  and  _401
REMARK  159  A    between atoms: _400  and  _403
REMARK  160  A    between atoms: _403  and  _404
REMARK  161  A    between atoms: _404  and  _405
REMARK  162  A    between atoms: _407  and  _409
REMARK  163  A    between atoms: _409  and  _410
REMARK  164  A    between atoms: _409  and  _412
REMARK  165  A    between atoms: _412  and  _413
REMARK  166  A    between atoms: _418  and  _419
REMARK  167  A    between atoms: _421  and  _423
REMARK  168  A    between atoms: _423  and  _424
REMARK  169  A    between atoms: _423  and  _426
REMARK  170  A    between atoms: _426  and  _427
REMARK  171  A    between atoms: _430  and  _432
REMARK  172  A    between atoms: _432  and  _433
REMARK  173  A    between atoms: _432  and  _435
REMARK  174  A    between atoms: _435  and  _436
REMARK  175  A    between atoms: _442  and  _444
REMARK  176  A    between atoms: _444  and  _445
REMARK  177  A    between atoms: _444  and  _447
REMARK  178  A    between atoms: _447  and  _448
REMARK  179  A    between atoms: _448  and  _449
REMARK  180  A    between atoms: _454  and  _456
REMARK  181  A    between atoms: _456  and  _457
REMARK  182  A    between atoms: _456  and  _459
REMARK  183  A    between atoms: _459  and  _460
REMARK  184  A    between atoms: _463  and  _465
REMARK  185  A    between atoms: _465  and  _466
REMARK  186  A    between atoms: _469  and  _471
REMARK  187  A    between atoms: _471  and  _472
REMARK  188  A    between atoms: _471  and  _474
REMARK  189  A    between atoms: _474  and  _475
REMARK  190  A    between atoms: _475  and  _476
REMARK  191  A    between atoms: _478  and  _480
REMARK  192  A    between atoms: _480  and  _481
REMARK  193  A    between atoms: _480  and  _483
REMARK  194  A    between atoms: _483  and  _484
REMARK  195  A    between atoms: _489  and  _490
REMARK  196  A    between atoms: _492  and  _494
REMARK  197  A    between atoms: _494  and  _495
REMARK  198  A    between atoms: _497  and  _499
REMARK  199  A    between atoms: _499  and  _500
REMARK  200  A    between atoms: _499  and  _502
REMARK  201  A    between atoms: _502  and  _503
REMARK  202  A    between atoms: _503  and  _504
REMARK  203  A    between atoms: _504  and  _505
REMARK  204  A    between atoms: _514  and  _516
REMARK  205  A    between atoms: _516  and  _517
REMARK  206  A    between atoms: _516  and  _519
REMARK  207  A    between atoms: _519  and  _520
REMARK  208  A    between atoms: _530  and  _532
REMARK  209  A    between atoms: _532  and  _533
REMARK  210  A    between atoms: _532  and  _535
REMARK  211  A    between atoms: _535  and  _536
REMARK  212  A    between atoms: _536  and  _537
REMARK  213  A    between atoms: _540  and  _542
REMARK  214  A    between atoms: _542  and  _543
REMARK  215  A    between atoms: _542  and  _545
REMARK  216  A    between atoms: _545  and  _546
REMARK  217  A    between atoms: _551  and  _553
REMARK  218  A    between atoms: _553  and  _554
REMARK  219  A    between atoms: _556  and  _558
REMARK  220  A    between atoms: _558  and  _559
REMARK  221  A    between atoms: _558  and  _561
REMARK  222  A    between atoms: _561  and  _562
REMARK  223  A    between atoms: _565  and  _567
REMARK  224  A    between atoms: _567  and  _568
REMARK  225  A    between atoms: _567  and  _570
REMARK  226  A    between atoms: _573  and  _575
REMARK  227  A    between atoms: _575  and  _576
REMARK  228  A    between atoms: _575  and  _578
REMARK  229  A    between atoms: _578  and  _579
REMARK  230  A    between atoms: _582  and  _584
REMARK  231  A    between atoms: _584  and  _585
REMARK  232  A    between atoms: _584  and  _587
REMARK  233  A    between atoms: _587  and  _588
REMARK  234  A    between atoms: _594  and  _596
REMARK  235  A    between atoms: _596  and  _597
REMARK  236  A    between atoms: _596  and  _599
REMARK  237  A    between atoms: _599  and  _600
REMARK  238  A    between atoms: _602  and  _604
REMARK  239  A    between atoms: _604  and  _605
REMARK  240  A    between atoms: _604  and  _607
REMARK  241  A    between atoms: _607  and  _608
REMARK  242  A    between atoms: _618  and  _620
REMARK  243  A    between atoms: _620  and  _621
REMARK  244  A    between atoms: _620  and  _623
REMARK  245  A    between atoms: _623  and  _624
REMARK  246  A    between atoms: _624  and  _625
REMARK  247  A    between atoms: _628  and  _630
REMARK  248  A    between atoms: _630  and  _631
REMARK  249  A    between atoms: _630  and  _633
REMARK  250  A    between atoms: _633  and  _634
REMARK  251  A    between atoms: _637  and  _639
REMARK  252  A    between atoms: _639  and  _640
REMARK                            x       y       z     vdW  Elec       q    Type
REMARK                         _______ _______ _______ _____ _____    ______ ____
ROOT
ATOM      1  O   HOH     1      35.307  67.629 -12.043  0.00  0.00    +0.000 OA
ENDROOT
TORSDOF 0
REMARK  Name = ../refined-set-2016/2wm0/2wm0_pocket.pdb
REMARK  252 active torsions:
REMARK  status: ('A' for Active; 'I' for Inactive)
REMARK    1  A    between atoms: _1  and  _3
REMARK    2  A    between atoms: _3  and  _4
REMARK    3  A    between atoms: _3  and  _6
REMARK    4  A    between atoms: _6  and  _7
REMARK    5  A    between atoms: _12  and  _13
REMARK    6  A    between atoms: _15  and  _17
REMARK    7  A    between atoms: _17  and  _18
REMARK    8  A    between atoms: _17  and  _20
REMARK    9  A    between atoms: _23  and  _25
REMARK   10  A    between atoms: _25  and  _26
REMARK   11  A    between atoms: _25  and  _28
REMARK   12  A    between atoms: _28  and  _29
REMARK   13  A    between atoms: _29  and  _30
REMARK   14  A    between atoms: _33  and  _35
REMARK   15  A    between atoms: _35  and  _36
REMARK   16  A    between atoms: _35  and  _38
REMARK   17  A    between atoms: _38  and  _39
REMARK   18  A    between atoms: _49  and  _51
REMARK   19  A    between atoms: _51  and  _52
REMARK   20  A    between atoms: _54  and  _56
REMARK   21  A    between atoms: _56  and  _57
REMARK   22  A    between atoms: _56  and  _59
REMARK   23  A    between atoms: _59  and  _60
REMARK   24  A    between atoms: _65  and  _66
REMARK   25  A    between atoms: _68  and  _70
REMARK   26  A    between atoms: _70  and  _71
REMARK   27  A    between atoms: _73  and  _75
REMARK   28  A    between atoms: _75  and  _76
REMARK   29  A    between atoms: _75  and  _78
REMARK   30  A    between atoms: _78  and  _79
REMARK   31  A    between atoms: _79  and  _80
REMARK   32  A    between atoms: _80  and  _81
REMARK   33  A    between atoms: _90  and  _92
REMARK   34  A    between atoms: _92  and  _93
REMARK   35  A    between atoms: _92  and  _95
REMARK   36  A    between atoms: _95  and  _96
REMARK   37  A    between atoms: _99  and  _101
REMARK   38  A    between atoms: _101  and  _102
REMARK   39  A    between atoms: _104  and  _106
REMARK   40  A    between atoms: _106  and  _107
REMARK   41  A    between atoms: _106  and  _109
REMARK   42  A    between atoms: _109  and  _110
REMARK   43  A    between atoms: _116  and  _118
REMARK   44  A    between atoms: _118  and  _119
REMARK   45  A    between atoms: _118  and  _121
REMARK   46  A    between atoms: _121  and  _122
REMARK   47  A    between atoms: _126  and  _127
REMARK   48  A    between atoms: _132  and  _134
REMARK   49  A    between atoms: _134  and  _135
REMARK   50  A    between atoms: _134  and  _137
REMARK   51  A    between atoms: _137  and  _138
REMARK   52  A    between atoms: _140  and  _142
REMARK   53  A    between atoms: _142  and  _143
REMARK   54  A    between atoms: _142  and  _145
REMARK   55  A    between atoms: _145  and  _146
REMARK   56  A    between atoms: _149  and  _151
REMARK   57  A    between atoms: _151  and  _152
REMARK   58  A    between atoms: _151  and  _154
REMARK   59  A    between atoms: _154  and  _155
REMARK   60  A    between atoms: _155  and  _156
REMARK   61  A    between atoms: _159  and  _161
REMARK   62  A    between atoms: _161  and  _162
REMARK   63  A    between atoms: _161  and  _164
REMARK   64  A    between atoms: _164  and  _165
REMARK   65  A    between atoms: _168  and  _170
REMARK   66  A    between atoms: _170  and  _171
REMARK   67  A    between atoms: _170  and  _173
REMARK   68  A    between atoms: _173  and  _174
REMARK   69  A    between atoms: _174  and  _175
REMARK   70  A    between atoms: _178  and  _180
REMARK   71  A    between atoms: _180  and  _181
REMARK   72  A    between atoms: _183  and  _185
REMARK   73  A    between atoms: _185  and  _186
REMARK   74  A    between atoms: _185  and  _188
REMARK   75  A    between atoms: _188  and  _189
REMARK   76  A    between atoms: _191  and  _193
REMARK   77  A    between atoms: _193  and  _194
REMARK   78  A    between atoms: _193  and  _196
REMARK   79  A    between atoms: _196  and  _197
REMARK   80  A    between atoms: _203  and  _205
REMARK   81  A    between atoms: _205  and  _206
REMARK   82  A    between atoms: _205  and  _208
REMARK   83  A    between atoms: _208  and  _209
REMARK   84  A    between atoms: _214  and  _216
REMARK   85  A    between atoms: _216  and  _217
REMARK   86  A    between atoms: _216  and  _219
REMARK   87  A    between atoms: _219  and  _220
REMARK   88  A    between atoms: _223  and  _225
REMARK   89  A    between atoms: _225  and  _226
REMARK   90  A    between atoms: _225  and  _228
REMARK   91  A    between atoms: _228  and  _229
REMARK   92  A    between atoms: _231  and  _233
REMARK   93  A    between atoms: _233  and  _234
REMARK   94  A    between atoms: _233  and  _236
REMARK   95  A    between atoms: _236  and  _237
REMARK   96  A    between atoms: _240  and  _242
REMARK   97  A    between atoms: _242  and  _243
REMARK   98  A    between atoms: _245  and  _247
REMARK   99  A    between atoms: _247  and  _248
REMARK  100  A    between atoms: _250  and  _252
REMARK  101  A    between atoms: _252  and  _253
REMARK  102  A    between atoms: _252  and  _255
REMARK  103  A    between atoms: _255  and  _256
REMARK  104  A    between atoms: _266  and  _268
REMARK  105  A    between atoms: _268  and  _269
REMARK  106  A    between atoms: _268  and  _271
REMARK  107  A    between atoms: _271  and  _272
REMARK  108  A    between atoms: _275  and  _277
REMARK  109  A    between atoms: _277  and  _278
REMARK  110  A    between atoms: _277  and  _280
REMARK  111  A    between atoms: _280  and  _281
REMARK  112  A    between atoms: _284  and  _286
REMARK  113  A    between atoms: _286  and  _287
REMARK  114  A    between atoms: _286  and  _289
REMARK  115  A    between atoms: _289  and  _290
REMARK  116  A    between atoms: _292  and  _294
REMARK  117  A    between atoms: _294  and  _295
REMARK  118  A    between atoms: _294  and  _297
REMARK  119  A    between atoms: _297  and  _298
REMARK  120  A    between atoms: _301  and  _303
REMARK  121  A    between atoms: _303  and  _304
REMARK  122  A    between atoms: _303  and  _306
REMARK  123  A    between atoms: _306  and  _307
REMARK  124  A    between atoms: _310  and  _312
REMARK  125  A    between atoms: _312  and  _313
REMARK  126  A    between atoms: _312  and  _315
REMARK  127  A    between atoms: _315  and  _316
REMARK  128  A    between atoms: _319  and  _321
REMARK  129  A    between atoms: _321  and  _322
REMARK  130  A    between atoms: _321  and  _324
REMARK  131  A    between atoms: _324  and  _325
REMARK  132  A    between atoms: _335  and  _337
REMARK  133  A    between atoms: _337  and  _338
REMARK  134  A    between atoms: _337  and  _340
REMARK  135  A    between atoms: _340  and  _341
REMARK  136  A    between atoms: _341  and  _342
REMARK  137  A    between atoms: _345  and  _347
REMARK  138  A    between atoms: _347  and  _348
REMARK  139  A    between atoms: _347  and  _350
REMARK  140  A    between atoms: _350  and  _351
REMARK  141  A    between atoms: _357  and  _359
REMARK  142  A    between atoms: _359  and  _360
REMARK  143  A    between atoms: _363  and  _365
REMARK  144  A    between atoms: _365  and  _366
REMARK  145  A    between atoms: _365  and  _368
REMARK  146  A    between atoms: _368  and  _369
REMARK  147  A    between atoms: _371  and  _373
REMARK  148  A    between atoms: _373  and  _374
REMARK  149  A    between atoms: _377  and  _379
REMARK  150  A    between atoms: _379  and  _380
REMARK  151  A    between atoms: _379  and  _382
REMARK  152  A    between atoms: _382  and  _383
REMARK  153  A    between atoms: _386  and  _388
REMARK  154  A    between atoms: _388  and  _389
REMARK  155  A    between atoms: _388  and  _391
REMARK  156  A    between atoms: _391  and  _392
REMARK  157  A    between atoms: _398  and  _400
REMARK  158  A    between atoms: _400  and  _401
REMARK  159  A    between atoms: _400  and  _403
REMARK  160  A    between atoms: _403  and  _404
REMARK  161  A    between atoms: _404  and  _405
REMARK  162  A    between atoms: _407  and  _409
REMARK  163  A    between atoms: _409  and  _410
REMARK  164  A    between atoms: _409  and  _412
REMARK  165  A    between atoms: _412  and  _413
REMARK  166  A    between atoms: _418  and  _419
REMARK  167  A    between atoms: _421  and  _423
REMARK  168  A    between atoms: _423  and  _424
REMARK  169  A    between atoms: _423  and  _426
REMARK  170  A    between atoms: _426  and  _427
REMARK  171  A    between atoms: _430  and  _432
REMARK  172  A    between atoms: _432  and  _433
REMARK  173  A    between atoms: _432  and  _435
REMARK  174  A    between atoms: _435  and  _436
REMARK  175  A    between atoms: _442  and  _444
REMARK  176  A    between atoms: _444  and  _445
REMARK  177  A    between atoms: _444  and  _447
REMARK  178  A    between atoms: _447  and  _448
REMARK  179  A    between atoms: _448  and  _449
REMARK  180  A    between atoms: _454  and  _456
REMARK  181  A    between atoms: _456  and  _457
REMARK  182  A    between atoms: _456  and  _459
REMARK  183  A    between atoms: _459  and  _460
REMARK  184  A    between atoms: _463  and  _465
REMARK  185  A    between atoms: _465  and  _466
REMARK  186  A    between atoms: _469  and  _471
REMARK  187  A    between atoms: _471  and  _472
REMARK  188  A    between atoms: _471  and  _474
REMARK  189  A    between atoms: _474  and  _475
REMARK  190  A    between atoms: _475  and  _476
REMARK  191  A    between atoms: _478  and  _480
REMARK  192  A    between atoms: _480  and  _481
REMARK  193  A    between atoms: _480  and  _483
REMARK  194  A    between atoms: _483  and  _484
REMARK  195  A    between atoms: _489  and  _490
REMARK  196  A    between atoms: _492  and  _494
REMARK  197  A    between atoms: _494  and  _495
REMARK  198  A    between atoms: _497  and  _499
REMARK  199  A    between atoms: _499  and  _500
REMARK  200  A    between atoms: _499  and  _502
REMARK  201  A    between atoms: _502  and  _503
REMARK  202  A    between atoms: _503  and  _504
REMARK  203  A    between atoms: _504  and  _505
REMARK  204  A    between atoms: _514  and  _516
REMARK  205  A    between atoms: _516  and  _517
REMARK  206  A    between atoms: _516  and  _519
REMARK  207  A    between atoms: _519  and  _520
REMARK  208  A    between atoms: _530  and  _532
REMARK  209  A    between atoms: _532  and  _533
REMARK  210  A    between atoms: _532  and  _535
REMARK  211  A    between atoms: _535  and  _536
REMARK  212  A    between atoms: _536  and  _537
REMARK  213  A    between atoms: _540  and  _542
REMARK  214  A    between atoms: _542  and  _543
REMARK  215  A    between atoms: _542  and  _545
REMARK  216  A    between atoms: _545  and  _546
REMARK  217  A    between atoms: _551  and  _553
REMARK  218  A    between atoms: _553  and  _554
REMARK  219  A    between atoms: _556  and  _558
REMARK  220  A    between atoms: _558  and  _559
REMARK  221  A    between atoms: _558  and  _561
REMARK  222  A    between atoms: _561  and  _562
REMARK  223  A    between atoms: _565  and  _567
REMARK  224  A    between atoms: _567  and  _568
REMARK  225  A    between atoms: _567  and  _570
REMARK  226  A    between atoms: _573  and  _575
REMARK  227  A    between atoms: _575  and  _576
REMARK  228  A    between atoms: _575  and  _578
REMARK  229  A    between atoms: _578  and  _579
REMARK  230  A    between atoms: _582  and  _584
REMARK  231  A    between atoms: _584  and  _585
REMARK  232  A    between atoms: _584  and  _587
REMARK  233  A    between atoms: _587  and  _588
REMARK  234  A    between atoms: _594  and  _596
REMARK  235  A    between atoms: _596  and  _597
REMARK  236  A    between atoms: _596  and  _599
REMARK  237  A    between atoms: _599  and  _600
REMARK  238  A    between atoms: _602  and  _604
REMARK  239  A    between atoms: _604  and  _605
REMARK  240  A    between atoms: _604  and  _607
REMARK  241  A    between atoms: _607  and  _608
REMARK  242  A    between atoms: _618  and  _620
REMARK  243  A    between atoms: _620  and  _621
REMARK  244  A    between atoms: _620  and  _623
REMARK  245  A    between atoms: _623  and  _624
REMARK  246  A    between atoms: _624  and  _625
REMARK  247  A    between atoms: _628  and  _630
REMARK  248  A    between atoms: _630  and  _631
REMARK  249  A    between atoms: _630  and  _633
REMARK  250  A    between atoms: _633  and  _634
REMARK  251  A    between atoms: _637  and  _639
REMARK  252  A    between atoms: _639  and  _640
REMARK                            x       y       z     vdW  Elec       q    Type
REMARK                         _______ _______ _______ _____ _____    ______ ____
ROOT
ATOM      1  O   HOH     1      30.942  67.296  -2.649  0.00  0.00    +0.000 OA
ENDROOT
TORSDOF 0
REMARK  Name = ../refined-set-2016/2wm0/2wm0_pocket.pdb
REMARK  252 active torsions:
REMARK  status: ('A' for Active; 'I' for Inactive)
REMARK    1  A    between atoms: _1  and  _3
REMARK    2  A    between atoms: _3  and  _4
REMARK    3  A    between atoms: _3  and  _6
REMARK    4  A    between atoms: _6  and  _7
REMARK    5  A    between atoms: _12  and  _13
REMARK    6  A    between atoms: _15  and  _17
REMARK    7  A    between atoms: _17  and  _18
REMARK    8  A    between atoms: _17  and  _20
REMARK    9  A    between atoms: _23  and  _25
REMARK   10  A    between atoms: _25  and  _26
REMARK   11  A    between atoms: _25  and  _28
REMARK   12  A    between atoms: _28  and  _29
REMARK   13  A    between atoms: _29  and  _30
REMARK   14  A    between atoms: _33  and  _35
REMARK   15  A    between atoms: _35  and  _36
REMARK   16  A    between atoms: _35  and  _38
REMARK   17  A    between atoms: _38  and  _39
REMARK   18  A    between atoms: _49  and  _51
REMARK   19  A    between atoms: _51  and  _52
REMARK   20  A    between atoms: _54  and  _56
REMARK   21  A    between atoms: _56  and  _57
REMARK   22  A    between atoms: _56  and  _59
REMARK   23  A    between atoms: _59  and  _60
REMARK   24  A    between atoms: _65  and  _66
REMARK   25  A    between atoms: _68  and  _70
REMARK   26  A    between atoms: _70  and  _71
REMARK   27  A    between atoms: _73  and  _75
REMARK   28  A    between atoms: _75  and  _76
REMARK   29  A    between atoms: _75  and  _78
REMARK   30  A    between atoms: _78  and  _79
REMARK   31  A    between atoms: _79  and  _80
REMARK   32  A    between atoms: _80  and  _81
REMARK   33  A    between atoms: _90  and  _92
REMARK   34  A    between atoms: _92  and  _93
REMARK   35  A    between atoms: _92  and  _95
REMARK   36  A    between atoms: _95  and  _96
REMARK   37  A    between atoms: _99  and  _101
REMARK   38  A    between atoms: _101  and  _102
REMARK   39  A    between atoms: _104  and  _106
REMARK   40  A    between atoms: _106  and  _107
REMARK   41  A    between atoms: _106  and  _109
REMARK   42  A    between atoms: _109  and  _110
REMARK   43  A    between atoms: _116  and  _118
REMARK   44  A    between atoms: _118  and  _119
REMARK   45  A    between atoms: _118  and  _121
REMARK   46  A    between atoms: _121  and  _122
REMARK   47  A    between atoms: _126  and  _127
REMARK   48  A    between atoms: _132  and  _134
REMARK   49  A    between atoms: _134  and  _135
REMARK   50  A    between atoms: _134  and  _137
REMARK   51  A    between atoms: _137  and  _138
REMARK   52  A    between atoms: _140  and  _142
REMARK   53  A    between atoms: _142  and  _143
REMARK   54  A    between atoms: _142  and  _145
REMARK   55  A    between atoms: _145  and  _146
REMARK   56  A    between atoms: _149  and  _151
REMARK   57  A    between atoms: _151  and  _152
REMARK   58  A    between atoms: _151  and  _154
REMARK   59  A    between atoms: _154  and  _155
REMARK   60  A    between atoms: _155  and  _156
REMARK   61  A    between atoms: _159  and  _161
REMARK   62  A    between atoms: _161  and  _162
REMARK   63  A    between atoms: _161  and  _164
REMARK   64  A    between atoms: _164  and  _165
REMARK   65  A    between atoms: _168  and  _170
REMARK   66  A    between atoms: _170  and  _171
REMARK   67  A    between atoms: _170  and  _173
REMARK   68  A    between atoms: _173  and  _174
REMARK   69  A    between atoms: _174  and  _175
REMARK   70  A    between atoms: _178  and  _180
REMARK   71  A    between atoms: _180  and  _181
REMARK   72  A    between atoms: _183  and  _185
REMARK   73  A    between atoms: _185  and  _186
REMARK   74  A    between atoms: _185  and  _188
REMARK   75  A    between atoms: _188  and  _189
REMARK   76  A    between atoms: _191  and  _193
REMARK   77  A    between atoms: _193  and  _194
REMARK   78  A    between atoms: _193  and  _196
REMARK   79  A    between atoms: _196  and  _197
REMARK   80  A    between atoms: _203  and  _205
REMARK   81  A    between atoms: _205  and  _206
REMARK   82  A    between atoms: _205  and  _208
REMARK   83  A    between atoms: _208  and  _209
REMARK   84  A    between atoms: _214  and  _216
REMARK   85  A    between atoms: _216  and  _217
REMARK   86  A    between atoms: _216  and  _219
REMARK   87  A    between atoms: _219  and  _220
REMARK   88  A    between atoms: _223  and  _225
REMARK   89  A    between atoms: _225  and  _226
REMARK   90  A    between atoms: _225  and  _228
REMARK   91  A    between atoms: _228  and  _229
REMARK   92  A    between atoms: _231  and  _233
REMARK   93  A    between atoms: _233  and  _234
REMARK   94  A    between atoms: _233  and  _236
REMARK   95  A    between atoms: _236  and  _237
REMARK   96  A    between atoms: _240  and  _242
REMARK   97  A    between atoms: _242  and  _243
REMARK   98  A    between atoms: _245  and  _247
REMARK   99  A    between atoms: _247  and  _248
REMARK  100  A    between atoms: _250  and  _252
REMARK  101  A    between atoms: _252  and  _253
REMARK  102  A    between atoms: _252  and  _255
REMARK  103  A    between atoms: _255  and  _256
REMARK  104  A    between atoms: _266  and  _268
REMARK  105  A    between atoms: _268  and  _269
REMARK  106  A    between atoms: _268  and  _271
REMARK  107  A    between atoms: _271  and  _272
REMARK  108  A    between atoms: _275  and  _277
REMARK  109  A    between atoms: _277  and  _278
REMARK  110  A    between atoms: _277  and  _280
REMARK  111  A    between atoms: _280  and  _281
REMARK  112  A    between atoms: _284  and  _286
REMARK  113  A    between atoms: _286  and  _287
REMARK  114  A    between atoms: _286  and  _289
REMARK  115  A    between atoms: _289  and  _290
REMARK  116  A    between atoms: _292  and  _294
REMARK  117  A    between atoms: _294  and  _295
REMARK  118  A    between atoms: _294  and  _297
REMARK  119  A    between atoms: _297  and  _298
REMARK  120  A    between atoms: _301  and  _303
REMARK  121  A    between atoms: _303  and  _304
REMARK  122  A    between atoms: _303  and  _306
REMARK  123  A    between atoms: _306  and  _307
REMARK  124  A    between atoms: _310  and  _312
REMARK  125  A    between atoms: _312  and  _313
REMARK  126  A    between atoms: _312  and  _315
REMARK  127  A    between atoms: _315  and  _316
REMARK  128  A    between atoms: _319  and  _321
REMARK  129  A    between atoms: _321  and  _322
REMARK  130  A    between atoms: _321  and  _324
REMARK  131  A    between atoms: _324  and  _325
REMARK  132  A    between atoms: _335  and  _337
REMARK  133  A    between atoms: _337  and  _338
REMARK  134  A    between atoms: _337  and  _340
REMARK  135  A    between atoms: _340  and  _341
REMARK  136  A    between atoms: _341  and  _342
REMARK  137  A    between atoms: _345  and  _347
REMARK  138  A    between atoms: _347  and  _348
REMARK  139  A    between atoms: _347  and  _350
REMARK  140  A    between atoms: _350  and  _351
REMARK  141  A    between atoms: _357  and  _359
REMARK  142  A    between atoms: _359  and  _360
REMARK  143  A    between atoms: _363  and  _365
REMARK  144  A    between atoms: _365  and  _366
REMARK  145  A    between atoms: _365  and  _368
REMARK  146  A    between atoms: _368  and  _369
REMARK  147  A    between atoms: _371  and  _373
REMARK  148  A    between atoms: _373  and  _374
REMARK  149  A    between atoms: _377  and  _379
REMARK  150  A    between atoms: _379  and  _380
REMARK  151  A    between atoms: _379  and  _382
REMARK  152  A    between atoms: _382  and  _383
REMARK  153  A    between atoms: _386  and  _388
REMARK  154  A    between atoms: _388  and  _389
REMARK  155  A    between atoms: _388  and  _391
REMARK  156  A    between atoms: _391  and  _392
REMARK  157  A    between atoms: _398  and  _400
REMARK  158  A    between atoms: _400  and  _401
REMARK  159  A    between atoms: _400  and  _403
REMARK  160  A    between atoms: _403  and  _404
REMARK  161  A    between atoms: _404  and  _405
REMARK  162  A    between atoms: _407  and  _409
REMARK  163  A    between atoms: _409  and  _410
REMARK  164  A    between atoms: _409  and  _412
REMARK  165  A    between atoms: _412  and  _413
REMARK  166  A    between atoms: _418  and  _419
REMARK  167  A    between atoms: _421  and  _423
REMARK  168  A    between atoms: _423  and  _424
REMARK  169  A    between atoms: _423  and  _426
REMARK  170  A    between atoms: _426  and  _427
REMARK  171  A    between atoms: _430  and  _432
REMARK  172  A    between atoms: _432  and  _433
REMARK  173  A    between atoms: _432  and  _435
REMARK  174  A    between atoms: _435  and  _436
REMARK  175  A    between atoms: _442  and  _444
REMARK  176  A    between atoms: _444  and  _445
REMARK  177  A    between atoms: _444  and  _447
REMARK  178  A    between atoms: _447  and  _448
REMARK  179  A    between atoms: _448  and  _449
REMARK  180  A    between atoms: _454  and  _456
REMARK  181  A    between atoms: _456  and  _457
REMARK  182  A    between atoms: _456  and  _459
REMARK  183  A    between atoms: _459  and  _460
REMARK  184  A    between atoms: _463  and  _465
REMARK  185  A    between atoms: _465  and  _466
REMARK  186  A    between atoms: _469  and  _471
REMARK  187  A    between atoms: _471  and  _472
REMARK  188  A    between atoms: _471  and  _474
REMARK  189  A    between atoms: _474  and  _475
REMARK  190  A    between atoms: _475  and  _476
REMARK  191  A    between atoms: _478  and  _480
REMARK  192  A    between atoms: _480  and  _481
REMARK  193  A    between atoms: _480  and  _483
REMARK  194  A    between atoms: _483  and  _484
REMARK  195  A    between atoms: _489  and  _490
REMARK  196  A    between atoms: _492  and  _494
REMARK  197  A    between atoms: _494  and  _495
REMARK  198  A    between atoms: _497  and  _499
REMARK  199  A    between atoms: _499  and  _500
REMARK  200  A    between atoms: _499  and  _502
REMARK  201  A    between atoms: _502  and  _503
REMARK  202  A    between atoms: _503  and  _504
REMARK  203  A    between atoms: _504  and  _505
REMARK  204  A    between atoms: _514  and  _516
REMARK  205  A    between atoms: _516  and  _517
REMARK  206  A    between atoms: _516  and  _519
REMARK  207  A    between atoms: _519  and  _520
REMARK  208  A    between atoms: _530  and  _532
REMARK  209  A    between atoms: _532  and  _533
REMARK  210  A    between atoms: _532  and  _535
REMARK  211  A    between atoms: _535  and  _536
REMARK  212  A    between atoms: _536  and  _537
REMARK  213  A    between atoms: _540  and  _542
REMARK  214  A    between atoms: _542  and  _543
REMARK  215  A    between atoms: _542  and  _545
REMARK  216  A    between atoms: _545  and  _546
REMARK  217  A    between atoms: _551  and  _553
REMARK  218  A    between atoms: _553  and  _554
REMARK  219  A    between atoms: _556  and  _558
REMARK  220  A    between atoms: _558  and  _559
REMARK  221  A    between atoms: _558  and  _561
REMARK  222  A    between atoms: _561  and  _562
REMARK  223  A    between atoms: _565  and  _567
REMARK  224  A    between atoms: _567  and  _568
REMARK  225  A    between atoms: _567  and  _570
REMARK  226  A    between atoms: _573  and  _575
REMARK  227  A    between atoms: _575  and  _576
REMARK  228  A    between atoms: _575  and  _578
REMARK  229  A    between atoms: _578  and  _579
REMARK  230  A    between atoms: _582  and  _584
REMARK  231  A    between atoms: _584  and  _585
REMARK  232  A    between atoms: _584  and  _587
REMARK  233  A    between atoms: _587  and  _588
REMARK  234  A    between atoms: _594  and  _596
REMARK  235  A    between atoms: _596  and  _597
REMARK  236  A    between atoms: _596  and  _599
REMARK  237  A    between atoms: _599  and  _600
REMARK  238  A    between atoms: _602  and  _604
REMARK  239  A    between atoms: _604  and  _605
REMARK  240  A    between atoms: _604  and  _607
REMARK  241  A    between atoms: _607  and  _608
REMARK  242  A    between atoms: _618  and  _620
REMARK  243  A    between atoms: _620  and  _621
REMARK  244  A    between atoms: _620  and  _623
REMARK  245  A    between atoms: _623  and  _624
REMARK  246  A    between atoms: _624  and  _625
REMARK  247  A    between atoms: _628  and  _630
REMARK  248  A    between atoms: _630  and  _631
REMARK  249  A    between atoms: _630  and  _633
REMARK  250  A    between atoms: _633  and  _634
REMARK  251  A    between atoms: _637  and  _639
REMARK  252  A    between atoms: _639  and  _640
REMARK                            x       y       z     vdW  Elec       q    Type
REMARK                         _______ _______ _______ _____ _____    ______ ____
ROOT
ATOM      1  O   HOH     1      32.472  75.419  -6.661  0.00  0.00    +0.000 OA
ENDROOT
TORSDOF 0
REMARK  Name = ../refined-set-2016/2wm0/2wm0_pocket.pdb
REMARK  252 active torsions:
REMARK  status: ('A' for Active; 'I' for Inactive)
REMARK    1  A    between atoms: _1  and  _3
REMARK    2  A    between atoms: _3  and  _4
REMARK    3  A    between atoms: _3  and  _6
REMARK    4  A    between atoms: _6  and  _7
REMARK    5  A    between atoms: _12  and  _13
REMARK    6  A    between atoms: _15  and  _17
REMARK    7  A    between atoms: _17  and  _18
REMARK    8  A    between atoms: _17  and  _20
REMARK    9  A    between atoms: _23  and  _25
REMARK   10  A    between atoms: _25  and  _26
REMARK   11  A    between atoms: _25  and  _28
REMARK   12  A    between atoms: _28  and  _29
REMARK   13  A    between atoms: _29  and  _30
REMARK   14  A    between atoms: _33  and  _35
REMARK   15  A    between atoms: _35  and  _36
REMARK   16  A    between atoms: _35  and  _38
REMARK   17  A    between atoms: _38  and  _39
REMARK   18  A    between atoms: _49  and  _51
REMARK   19  A    between atoms: _51  and  _52
REMARK   20  A    between atoms: _54  and  _56
REMARK   21  A    between atoms: _56  and  _57
REMARK   22  A    between atoms: _56  and  _59
REMARK   23  A    between atoms: _59  and  _60
REMARK   24  A    between atoms: _65  and  _66
REMARK   25  A    between atoms: _68  and  _70
REMARK   26  A    between atoms: _70  and  _71
REMARK   27  A    between atoms: _73  and  _75
REMARK   28  A    between atoms: _75  and  _76
REMARK   29  A    between atoms: _75  and  _78
REMARK   30  A    between atoms: _78  and  _79
REMARK   31  A    between atoms: _79  and  _80
REMARK   32  A    between atoms: _80  and  _81
REMARK   33  A    between atoms: _90  and  _92
REMARK   34  A    between atoms: _92  and  _93
REMARK   35  A    between atoms: _92  and  _95
REMARK   36  A    between atoms: _95  and  _96
REMARK   37  A    between atoms: _99  and  _101
REMARK   38  A    between atoms: _101  and  _102
REMARK   39  A    between atoms: _104  and  _106
REMARK   40  A    between atoms: _106  and  _107
REMARK   41  A    between atoms: _106  and  _109
REMARK   42  A    between atoms: _109  and  _110
REMARK   43  A    between atoms: _116  and  _118
REMARK   44  A    between atoms: _118  and  _119
REMARK   45  A    between atoms: _118  and  _121
REMARK   46  A    between atoms: _121  and  _122
REMARK   47  A    between atoms: _126  and  _127
REMARK   48  A    between atoms: _132  and  _134
REMARK   49  A    between atoms: _134  and  _135
REMARK   50  A    between atoms: _134  and  _137
REMARK   51  A    between atoms: _137  and  _138
REMARK   52  A    between atoms: _140  and  _142
REMARK   53  A    between atoms: _142  and  _143
REMARK   54  A    between atoms: _142  and  _145
REMARK   55  A    between atoms: _145  and  _146
REMARK   56  A    between atoms: _149  and  _151
REMARK   57  A    between atoms: _151  and  _152
REMARK   58  A    between atoms: _151  and  _154
REMARK   59  A    between atoms: _154  and  _155
REMARK   60  A    between atoms: _155  and  _156
REMARK   61  A    between atoms: _159  and  _161
REMARK   62  A    between atoms: _161  and  _162
REMARK   63  A    between atoms: _161  and  _164
REMARK   64  A    between atoms: _164  and  _165
REMARK   65  A    between atoms: _168  and  _170
REMARK   66  A    between atoms: _170  and  _171
REMARK   67  A    between atoms: _170  and  _173
REMARK   68  A    between atoms: _173  and  _174
REMARK   69  A    between atoms: _174  and  _175
REMARK   70  A    between atoms: _178  and  _180
REMARK   71  A    between atoms: _180  and  _181
REMARK   72  A    between atoms: _183  and  _185
REMARK   73  A    between atoms: _185  and  _186
REMARK   74  A    between atoms: _185  and  _188
REMARK   75  A    between atoms: _188  and  _189
REMARK   76  A    between atoms: _191  and  _193
REMARK   77  A    between atoms: _193  and  _194
REMARK   78  A    between atoms: _193  and  _196
REMARK   79  A    between atoms: _196  and  _197
REMARK   80  A    between atoms: _203  and  _205
REMARK   81  A    between atoms: _205  and  _206
REMARK   82  A    between atoms: _205  and  _208
REMARK   83  A    between atoms: _208  and  _209
REMARK   84  A    between atoms: _214  and  _216
REMARK   85  A    between atoms: _216  and  _217
REMARK   86  A    between atoms: _216  and  _219
REMARK   87  A    between atoms: _219  and  _220
REMARK   88  A    between atoms: _223  and  _225
REMARK   89  A    between atoms: _225  and  _226
REMARK   90  A    between atoms: _225  and  _228
REMARK   91  A    between atoms: _228  and  _229
REMARK   92  A    between atoms: _231  and  _233
REMARK   93  A    between atoms: _233  and  _234
REMARK   94  A    between atoms: _233  and  _236
REMARK   95  A    between atoms: _236  and  _237
REMARK   96  A    between atoms: _240  and  _242
REMARK   97  A    between atoms: _242  and  _243
REMARK   98  A    between atoms: _245  and  _247
REMARK   99  A    between atoms: _247  and  _248
REMARK  100  A    between atoms: _250  and  _252
REMARK  101  A    between atoms: _252  and  _253
REMARK  102  A    between atoms: _252  and  _255
REMARK  103  A    between atoms: _255  and  _256
REMARK  104  A    between atoms: _266  and  _268
REMARK  105  A    between atoms: _268  and  _269
REMARK  106  A    between atoms: _268  and  _271
REMARK  107  A    between atoms: _271  and  _272
REMARK  108  A    between atoms: _275  and  _277
REMARK  109  A    between atoms: _277  and  _278
REMARK  110  A    between atoms: _277  and  _280
REMARK  111  A    between atoms: _280  and  _281
REMARK  112  A    between atoms: _284  and  _286
REMARK  113  A    between atoms: _286  and  _287
REMARK  114  A    between atoms: _286  and  _289
REMARK  115  A    between atoms: _289  and  _290
REMARK  116  A    between atoms: _292  and  _294
REMARK  117  A    between atoms: _294  and  _295
REMARK  118  A    between atoms: _294  and  _297
REMARK  119  A    between atoms: _297  and  _298
REMARK  120  A    between atoms: _301  and  _303
REMARK  121  A    between atoms: _303  and  _304
REMARK  122  A    between atoms: _303  and  _306
REMARK  123  A    between atoms: _306  and  _307
REMARK  124  A    between atoms: _310  and  _312
REMARK  125  A    between atoms: _312  and  _313
REMARK  126  A    between atoms: _312  and  _315
REMARK  127  A    between atoms: _315  and  _316
REMARK  128  A    between atoms: _319  and  _321
REMARK  129  A    between atoms: _321  and  _322
REMARK  130  A    between atoms: _321  and  _324
REMARK  131  A    between atoms: _324  and  _325
REMARK  132  A    between atoms: _335  and  _337
REMARK  133  A    between atoms: _337  and  _338
REMARK  134  A    between atoms: _337  and  _340
REMARK  135  A    between atoms: _340  and  _341
REMARK  136  A    between atoms: _341  and  _342
REMARK  137  A    between atoms: _345  and  _347
REMARK  138  A    between atoms: _347  and  _348
REMARK  139  A    between atoms: _347  and  _350
REMARK  140  A    between atoms: _350  and  _351
REMARK  141  A    between atoms: _357  and  _359
REMARK  142  A    between atoms: _359  and  _360
REMARK  143  A    between atoms: _363  and  _365
REMARK  144  A    between atoms: _365  and  _366
REMARK  145  A    between atoms: _365  and  _368
REMARK  146  A    between atoms: _368  and  _369
REMARK  147  A    between atoms: _371  and  _373
REMARK  148  A    between atoms: _373  and  _374
REMARK  149  A    between atoms: _377  and  _379
REMARK  150  A    between atoms: _379  and  _380
REMARK  151  A    between atoms: _379  and  _382
REMARK  152  A    between atoms: _382  and  _383
REMARK  153  A    between atoms: _386  and  _388
REMARK  154  A    between atoms: _388  and  _389
REMARK  155  A    between atoms: _388  and  _391
REMARK  156  A    between atoms: _391  and  _392
REMARK  157  A    between atoms: _398  and  _400
REMARK  158  A    between atoms: _400  and  _401
REMARK  159  A    between atoms: _400  and  _403
REMARK  160  A    between atoms: _403  and  _404
REMARK  161  A    between atoms: _404  and  _405
REMARK  162  A    between atoms: _407  and  _409
REMARK  163  A    between atoms: _409  and  _410
REMARK  164  A    between atoms: _409  and  _412
REMARK  165  A    between atoms: _412  and  _413
REMARK  166  A    between atoms: _418  and  _419
REMARK  167  A    between atoms: _421  and  _423
REMARK  168  A    between atoms: _423  and  _424
REMARK  169  A    between atoms: _423  and  _426
REMARK  170  A    between atoms: _426  and  _427
REMARK  171  A    between atoms: _430  and  _432
REMARK  172  A    between atoms: _432  and  _433
REMARK  173  A    between atoms: _432  and  _435
REMARK  174  A    between atoms: _435  and  _436
REMARK  175  A    between atoms: _442  and  _444
REMARK  176  A    between atoms: _444  and  _445
REMARK  177  A    between atoms: _444  and  _447
REMARK  178  A    between atoms: _447  and  _448
REMARK  179  A    between atoms: _448  and  _449
REMARK  180  A    between atoms: _454  and  _456
REMARK  181  A    between atoms: _456  and  _457
REMARK  182  A    between atoms: _456  and  _459
REMARK  183  A    between atoms: _459  and  _460
REMARK  184  A    between atoms: _463  and  _465
REMARK  185  A    between atoms: _465  and  _466
REMARK  186  A    between atoms: _469  and  _471
REMARK  187  A    between atoms: _471  and  _472
REMARK  188  A    between atoms: _471  and  _474
REMARK  189  A    between atoms: _474  and  _475
REMARK  190  A    between atoms: _475  and  _476
REMARK  191  A    between atoms: _478  and  _480
REMARK  192  A    between atoms: _480  and  _481
REMARK  193  A    between atoms: _480  and  _483
REMARK  194  A    between atoms: _483  and  _484
REMARK  195  A    between atoms: _489  and  _490
REMARK  196  A    between atoms: _492  and  _494
REMARK  197  A    between atoms: _494  and  _495
REMARK  198  A    between atoms: _497  and  _499
REMARK  199  A    between atoms: _499  and  _500
REMARK  200  A    between atoms: _499  and  _502
REMARK  201  A    between atoms: _502  and  _503
REMARK  202  A    between atoms: _503  and  _504
REMARK  203  A    between atoms: _504  and  _505
REMARK  204  A    between atoms: _514  and  _516
REMARK  205  A    between atoms: _516  and  _517
REMARK  206  A    between atoms: _516  and  _519
REMARK  207  A    between atoms: _519  and  _520
REMARK  208  A    between atoms: _530  and  _532
REMARK  209  A    between atoms: _532  and  _533
REMARK  210  A    between atoms: _532  and  _535
REMARK  211  A    between atoms: _535  and  _536
REMARK  212  A    between atoms: _536  and  _537
REMARK  213  A    between atoms: _540  and  _542
REMARK  214  A    between atoms: _542  and  _543
REMARK  215  A    between atoms: _542  and  _545
REMARK  216  A    between atoms: _545  and  _546
REMARK  217  A    between atoms: _551  and  _553
REMARK  218  A    between atoms: _553  and  _554
REMARK  219  A    between atoms: _556  and  _558
REMARK  220  A    between atoms: _558  and  _559
REMARK  221  A    between atoms: _558  and  _561
REMARK  222  A    between atoms: _561  and  _562
REMARK  223  A    between atoms: _565  and  _567
REMARK  224  A    between atoms: _567  and  _568
REMARK  225  A    between atoms: _567  and  _570
REMARK  226  A    between atoms: _573  and  _575
REMARK  227  A    between atoms: _575  and  _576
REMARK  228  A    between atoms: _575  and  _578
REMARK  229  A    between atoms: _578  and  _579
REMARK  230  A    between atoms: _582  and  _584
REMARK  231  A    between atoms: _584  and  _585
REMARK  232  A    between atoms: _584  and  _587
REMARK  233  A    between atoms: _587  and  _588
REMARK  234  A    between atoms: _594  and  _596
REMARK  235  A    between atoms: _596  and  _597
REMARK  236  A    between atoms: _596  and  _599
REMARK  237  A    between atoms: _599  and  _600
REMARK  238  A    between atoms: _602  and  _604
REMARK  239  A    between atoms: _604  and  _605
REMARK  240  A    between atoms: _604  and  _607
REMARK  241  A    between atoms: _607  and  _608
REMARK  242  A    between atoms: _618  and  _620
REMARK  243  A    between atoms: _620  and  _621
REMARK  244  A    between atoms: _620  and  _623
REMARK  245  A    between atoms: _623  and  _624
REMARK  246  A    between atoms: _624  and  _625
REMARK  247  A    between atoms: _628  and  _630
REMARK  248  A    between atoms: _630  and  _631
REMARK  249  A    between atoms: _630  and  _633
REMARK  250  A    between atoms: _633  and  _634
REMARK  251  A    between atoms: _637  and  _639
REMARK  252  A    between atoms: _639  and  _640
REMARK                            x       y       z     vdW  Elec       q    Type
REMARK                         _______ _______ _______ _____ _____    ______ ____
ROOT
ATOM      1  O   HOH     1      30.999  78.833  -6.826  0.00  0.00    +0.000 OA
ENDROOT
TORSDOF 0
REMARK  Name = ../refined-set-2016/2wm0/2wm0_pocket.pdb
REMARK  252 active torsions:
REMARK  status: ('A' for Active; 'I' for Inactive)
REMARK    1  A    between atoms: _1  and  _3
REMARK    2  A    between atoms: _3  and  _4
REMARK    3  A    between atoms: _3  and  _6
REMARK    4  A    between atoms: _6  and  _7
REMARK    5  A    between atoms: _12  and  _13
REMARK    6  A    between atoms: _15  and  _17
REMARK    7  A    between atoms: _17  and  _18
REMARK    8  A    between atoms: _17  and  _20
REMARK    9  A    between atoms: _23  and  _25
REMARK   10  A    between atoms: _25  and  _26
REMARK   11  A    between atoms: _25  and  _28
REMARK   12  A    between atoms: _28  and  _29
REMARK   13  A    between atoms: _29  and  _30
REMARK   14  A    between atoms: _33  and  _35
REMARK   15  A    between atoms: _35  and  _36
REMARK   16  A    between atoms: _35  and  _38
REMARK   17  A    between atoms: _38  and  _39
REMARK   18  A    between atoms: _49  and  _51
REMARK   19  A    between atoms: _51  and  _52
REMARK   20  A    between atoms: _54  and  _56
REMARK   21  A    between atoms: _56  and  _57
REMARK   22  A    between atoms: _56  and  _59
REMARK   23  A    between atoms: _59  and  _60
REMARK   24  A    between atoms: _65  and  _66
REMARK   25  A    between atoms: _68  and  _70
REMARK   26  A    between atoms: _70  and  _71
REMARK   27  A    between atoms: _73  and  _75
REMARK   28  A    between atoms: _75  and  _76
REMARK   29  A    between atoms: _75  and  _78
REMARK   30  A    between atoms: _78  and  _79
REMARK   31  A    between atoms: _79  and  _80
REMARK   32  A    between atoms: _80  and  _81
REMARK   33  A    between atoms: _90  and  _92
REMARK   34  A    between atoms: _92  and  _93
REMARK   35  A    between atoms: _92  and  _95
REMARK   36  A    between atoms: _95  and  _96
REMARK   37  A    between atoms: _99  and  _101
REMARK   38  A    between atoms: _101  and  _102
REMARK   39  A    between atoms: _104  and  _106
REMARK   40  A    between atoms: _106  and  _107
REMARK   41  A    between atoms: _106  and  _109
REMARK   42  A    between atoms: _109  and  _110
REMARK   43  A    between atoms: _116  and  _118
REMARK   44  A    between atoms: _118  and  _119
REMARK   45  A    between atoms: _118  and  _121
REMARK   46  A    between atoms: _121  and  _122
REMARK   47  A    between atoms: _126  and  _127
REMARK   48  A    between atoms: _132  and  _134
REMARK   49  A    between atoms: _134  and  _135
REMARK   50  A    between atoms: _134  and  _137
REMARK   51  A    between atoms: _137  and  _138
REMARK   52  A    between atoms: _140  and  _142
REMARK   53  A    between atoms: _142  and  _143
REMARK   54  A    between atoms: _142  and  _145
REMARK   55  A    between atoms: _145  and  _146
REMARK   56  A    between atoms: _149  and  _151
REMARK   57  A    between atoms: _151  and  _152
REMARK   58  A    between atoms: _151  and  _154
REMARK   59  A    between atoms: _154  and  _155
REMARK   60  A    between atoms: _155  and  _156
REMARK   61  A    between atoms: _159  and  _161
REMARK   62  A    between atoms: _161  and  _162
REMARK   63  A    between atoms: _161  and  _164
REMARK   64  A    between atoms: _164  and  _165
REMARK   65  A    between atoms: _168  and  _170
REMARK   66  A    between atoms: _170  and  _171
REMARK   67  A    between atoms: _170  and  _173
REMARK   68  A    between atoms: _173  and  _174
REMARK   69  A    between atoms: _174  and  _175
REMARK   70  A    between atoms: _178  and  _180
REMARK   71  A    between atoms: _180  and  _181
REMARK   72  A    between atoms: _183  and  _185
REMARK   73  A    between atoms: _185  and  _186
REMARK   74  A    between atoms: _185  and  _188
REMARK   75  A    between atoms: _188  and  _189
REMARK   76  A    between atoms: _191  and  _193
REMARK   77  A    between atoms: _193  and  _194
REMARK   78  A    between atoms: _193  and  _196
REMARK   79  A    between atoms: _196  and  _197
REMARK   80  A    between atoms: _203  and  _205
REMARK   81  A    between atoms: _205  and  _206
REMARK   82  A    between atoms: _205  and  _208
REMARK   83  A    between atoms: _208  and  _209
REMARK   84  A    between atoms: _214  and  _216
REMARK   85  A    between atoms: _216  and  _217
REMARK   86  A    between atoms: _216  and  _219
REMARK   87  A    between atoms: _219  and  _220
REMARK   88  A    between atoms: _223  and  _225
REMARK   89  A    between atoms: _225  and  _226
REMARK   90  A    between atoms: _225  and  _228
REMARK   91  A    between atoms: _228  and  _229
REMARK   92  A    between atoms: _231  and  _233
REMARK   93  A    between atoms: _233  and  _234
REMARK   94  A    between atoms: _233  and  _236
REMARK   95  A    between atoms: _236  and  _237
REMARK   96  A    between atoms: _240  and  _242
REMARK   97  A    between atoms: _242  and  _243
REMARK   98  A    between atoms: _245  and  _247
REMARK   99  A    between atoms: _247  and  _248
REMARK  100  A    between atoms: _250  and  _252
REMARK  101  A    between atoms: _252  and  _253
REMARK  102  A    between atoms: _252  and  _255
REMARK  103  A    between atoms: _255  and  _256
REMARK  104  A    between atoms: _266  and  _268
REMARK  105  A    between atoms: _268  and  _269
REMARK  106  A    between atoms: _268  and  _271
REMARK  107  A    between atoms: _271  and  _272
REMARK  108  A    between atoms: _275  and  _277
REMARK  109  A    between atoms: _277  and  _278
REMARK  110  A    between atoms: _277  and  _280
REMARK  111  A    between atoms: _280  and  _281
REMARK  112  A    between atoms: _284  and  _286
REMARK  113  A    between atoms: _286  and  _287
REMARK  114  A    between atoms: _286  and  _289
REMARK  115  A    between atoms: _289  and  _290
REMARK  116  A    between atoms: _292  and  _294
REMARK  117  A    between atoms: _294  and  _295
REMARK  118  A    between atoms: _294  and  _297
REMARK  119  A    between atoms: _297  and  _298
REMARK  120  A    between atoms: _301  and  _303
REMARK  121  A    between atoms: _303  and  _304
REMARK  122  A    between atoms: _303  and  _306
REMARK  123  A    between atoms: _306  and  _307
REMARK  124  A    between atoms: _310  and  _312
REMARK  125  A    between atoms: _312  and  _313
REMARK  126  A    between atoms: _312  and  _315
REMARK  127  A    between atoms: _315  and  _316
REMARK  128  A    between atoms: _319  and  _321
REMARK  129  A    between atoms: _321  and  _322
REMARK  130  A    between atoms: _321  and  _324
REMARK  131  A    between atoms: _324  and  _325
REMARK  132  A    between atoms: _335  and  _337
REMARK  133  A    between atoms: _337  and  _338
REMARK  134  A    between atoms: _337  and  _340
REMARK  135  A    between atoms: _340  and  _341
REMARK  136  A    between atoms: _341  and  _342
REMARK  137  A    between atoms: _345  and  _347
REMARK  138  A    between atoms: _347  and  _348
REMARK  139  A    between atoms: _347  and  _350
REMARK  140  A    between atoms: _350  and  _351
REMARK  141  A    between atoms: _357  and  _359
REMARK  142  A    between atoms: _359  and  _360
REMARK  143  A    between atoms: _363  and  _365
REMARK  144  A    between atoms: _365  and  _366
REMARK  145  A    between atoms: _365  and  _368
REMARK  146  A    between atoms: _368  and  _369
REMARK  147  A    between atoms: _371  and  _373
REMARK  148  A    between atoms: _373  and  _374
REMARK  149  A    between atoms: _377  and  _379
REMARK  150  A    between atoms: _379  and  _380
REMARK  151  A    between atoms: _379  and  _382
REMARK  152  A    between atoms: _382  and  _383
REMARK  153  A    between atoms: _386  and  _388
REMARK  154  A    between atoms: _388  and  _389
REMARK  155  A    between atoms: _388  and  _391
REMARK  156  A    between atoms: _391  and  _392
REMARK  157  A    between atoms: _398  and  _400
REMARK  158  A    between atoms: _400  and  _401
REMARK  159  A    between atoms: _400  and  _403
REMARK  160  A    between atoms: _403  and  _404
REMARK  161  A    between atoms: _404  and  _405
REMARK  162  A    between atoms: _407  and  _409
REMARK  163  A    between atoms: _409  and  _410
REMARK  164  A    between atoms: _409  and  _412
REMARK  165  A    between atoms: _412  and  _413
REMARK  166  A    between atoms: _418  and  _419
REMARK  167  A    between atoms: _421  and  _423
REMARK  168  A    between atoms: _423  and  _424
REMARK  169  A    between atoms: _423  and  _426
REMARK  170  A    between atoms: _426  and  _427
REMARK  171  A    between atoms: _430  and  _432
REMARK  172  A    between atoms: _432  and  _433
REMARK  173  A    between atoms: _432  and  _435
REMARK  174  A    between atoms: _435  and  _436
REMARK  175  A    between atoms: _442  and  _444
REMARK  176  A    between atoms: _444  and  _445
REMARK  177  A    between atoms: _444  and  _447
REMARK  178  A    between atoms: _447  and  _448
REMARK  179  A    between atoms: _448  and  _449
REMARK  180  A    between atoms: _454  and  _456
REMARK  181  A    between atoms: _456  and  _457
REMARK  182  A    between atoms: _456  and  _459
REMARK  183  A    between atoms: _459  and  _460
REMARK  184  A    between atoms: _463  and  _465
REMARK  185  A    between atoms: _465  and  _466
REMARK  186  A    between atoms: _469  and  _471
REMARK  187  A    between atoms: _471  and  _472
REMARK  188  A    between atoms: _471  and  _474
REMARK  189  A    between atoms: _474  and  _475
REMARK  190  A    between atoms: _475  and  _476
REMARK  191  A    between atoms: _478  and  _480
REMARK  192  A    between atoms: _480  and  _481
REMARK  193  A    between atoms: _480  and  _483
REMARK  194  A    between atoms: _483  and  _484
REMARK  195  A    between atoms: _489  and  _490
REMARK  196  A    between atoms: _492  and  _494
REMARK  197  A    between atoms: _494  and  _495
REMARK  198  A    between atoms: _497  and  _499
REMARK  199  A    between atoms: _499  and  _500
REMARK  200  A    between atoms: _499  and  _502
REMARK  201  A    between atoms: _502  and  _503
REMARK  202  A    between atoms: _503  and  _504
REMARK  203  A    between atoms: _504  and  _505
REMARK  204  A    between atoms: _514  and  _516
REMARK  205  A    between atoms: _516  and  _517
REMARK  206  A    between atoms: _516  and  _519
REMARK  207  A    between atoms: _519  and  _520
REMARK  208  A    between atoms: _530  and  _532
REMARK  209  A    between atoms: _532  and  _533
REMARK  210  A    between atoms: _532  and  _535
REMARK  211  A    between atoms: _535  and  _536
REMARK  212  A    between atoms: _536  and  _537
REMARK  213  A    between atoms: _540  and  _542
REMARK  214  A    between atoms: _542  and  _543
REMARK  215  A    between atoms: _542  and  _545
REMARK  216  A    between atoms: _545  and  _546
REMARK  217  A    between atoms: _551  and  _553
REMARK  218  A    between atoms: _553  and  _554
REMARK  219  A    between atoms: _556  and  _558
REMARK  220  A    between atoms: _558  and  _559
REMARK  221  A    between atoms: _558  and  _561
REMARK  222  A    between atoms: _561  and  _562
REMARK  223  A    between atoms: _565  and  _567
REMARK  224  A    between atoms: _567  and  _568
REMARK  225  A    between atoms: _567  and  _570
REMARK  226  A    between atoms: _573  and  _575
REMARK  227  A    between atoms: _575  and  _576
REMARK  228  A    between atoms: _575  and  _578
REMARK  229  A    between atoms: _578  and  _579
REMARK  230  A    between atoms: _582  and  _584
REMARK  231  A    between atoms: _584  and  _585
REMARK  232  A    between atoms: _584  and  _587
REMARK  233  A    between atoms: _587  and  _588
REMARK  234  A    between atoms: _594  and  _596
REMARK  235  A    between atoms: _596  and  _597
REMARK  236  A    between atoms: _596  and  _599
REMARK  237  A    between atoms: _599  and  _600
REMARK  238  A    between atoms: _602  and  _604
REMARK  239  A    between atoms: _604  and  _605
REMARK  240  A    between atoms: _604  and  _607
REMARK  241  A    between atoms: _607  and  _608
REMARK  242  A    between atoms: _618  and  _620
REMARK  243  A    between atoms: _620  and  _621
REMARK  244  A    between atoms: _620  and  _623
REMARK  245  A    between atoms: _623  and  _624
REMARK  246  A    between atoms: _624  and  _625
REMARK  247  A    between atoms: _628  and  _630
REMARK  248  A    between atoms: _630  and  _631
REMARK  249  A    between atoms: _630  and  _633
REMARK  250  A    between atoms: _633  and  _634
REMARK  251  A    between atoms: _637  and  _639
REMARK  252  A    between atoms: _639  and  _640
REMARK                            x       y       z     vdW  Elec       q    Type
REMARK                         _______ _______ _______ _____ _____    ______ ____
ROOT
ATOM      1  O   HOH     1      25.688  71.933  -5.133  0.00  0.00    +0.000 OA
ENDROOT
TORSDOF 0
REMARK  Name = ../refined-set-2016/2wm0/2wm0_pocket.pdb
REMARK  252 active torsions:
REMARK  status: ('A' for Active; 'I' for Inactive)
REMARK    1  A    between atoms: _1  and  _3
REMARK    2  A    between atoms: _3  and  _4
REMARK    3  A    between atoms: _3  and  _6
REMARK    4  A    between atoms: _6  and  _7
REMARK    5  A    between atoms: _12  and  _13
REMARK    6  A    between atoms: _15  and  _17
REMARK    7  A    between atoms: _17  and  _18
REMARK    8  A    between atoms: _17  and  _20
REMARK    9  A    between atoms: _23  and  _25
REMARK   10  A    between atoms: _25  and  _26
REMARK   11  A    between atoms: _25  and  _28
REMARK   12  A    between atoms: _28  and  _29
REMARK   13  A    between atoms: _29  and  _30
REMARK   14  A    between atoms: _33  and  _35
REMARK   15  A    between atoms: _35  and  _36
REMARK   16  A    between atoms: _35  and  _38
REMARK   17  A    between atoms: _38  and  _39
REMARK   18  A    between atoms: _49  and  _51
REMARK   19  A    between atoms: _51  and  _52
REMARK   20  A    between atoms: _54  and  _56
REMARK   21  A    between atoms: _56  and  _57
REMARK   22  A    between atoms: _56  and  _59
REMARK   23  A    between atoms: _59  and  _60
REMARK   24  A    between atoms: _65  and  _66
REMARK   25  A    between atoms: _68  and  _70
REMARK   26  A    between atoms: _70  and  _71
REMARK   27  A    between atoms: _73  and  _75
REMARK   28  A    between atoms: _75  and  _76
REMARK   29  A    between atoms: _75  and  _78
REMARK   30  A    between atoms: _78  and  _79
REMARK   31  A    between atoms: _79  and  _80
REMARK   32  A    between atoms: _80  and  _81
REMARK   33  A    between atoms: _90  and  _92
REMARK   34  A    between atoms: _92  and  _93
REMARK   35  A    between atoms: _92  and  _95
REMARK   36  A    between atoms: _95  and  _96
REMARK   37  A    between atoms: _99  and  _101
REMARK   38  A    between atoms: _101  and  _102
REMARK   39  A    between atoms: _104  and  _106
REMARK   40  A    between atoms: _106  and  _107
REMARK   41  A    between atoms: _106  and  _109
REMARK   42  A    between atoms: _109  and  _110
REMARK   43  A    between atoms: _116  and  _118
REMARK   44  A    between atoms: _118  and  _119
REMARK   45  A    between atoms: _118  and  _121
REMARK   46  A    between atoms: _121  and  _122
REMARK   47  A    between atoms: _126  and  _127
REMARK   48  A    between atoms: _132  and  _134
REMARK   49  A    between atoms: _134  and  _135
REMARK   50  A    between atoms: _134  and  _137
REMARK   51  A    between atoms: _137  and  _138
REMARK   52  A    between atoms: _140  and  _142
REMARK   53  A    between atoms: _142  and  _143
REMARK   54  A    between atoms: _142  and  _145
REMARK   55  A    between atoms: _145  and  _146
REMARK   56  A    between atoms: _149  and  _151
REMARK   57  A    between atoms: _151  and  _152
REMARK   58  A    between atoms: _151  and  _154
REMARK   59  A    between atoms: _154  and  _155
REMARK   60  A    between atoms: _155  and  _156
REMARK   61  A    between atoms: _159  and  _161
REMARK   62  A    between atoms: _161  and  _162
REMARK   63  A    between atoms: _161  and  _164
REMARK   64  A    between atoms: _164  and  _165
REMARK   65  A    between atoms: _168  and  _170
REMARK   66  A    between atoms: _170  and  _171
REMARK   67  A    between atoms: _170  and  _173
REMARK   68  A    between atoms: _173  and  _174
REMARK   69  A    between atoms: _174  and  _175
REMARK   70  A    between atoms: _178  and  _180
REMARK   71  A    between atoms: _180  and  _181
REMARK   72  A    between atoms: _183  and  _185
REMARK   73  A    between atoms: _185  and  _186
REMARK   74  A    between atoms: _185  and  _188
REMARK   75  A    between atoms: _188  and  _189
REMARK   76  A    between atoms: _191  and  _193
REMARK   77  A    between atoms: _193  and  _194
REMARK   78  A    between atoms: _193  and  _196
REMARK   79  A    between atoms: _196  and  _197
REMARK   80  A    between atoms: _203  and  _205
REMARK   81  A    between atoms: _205  and  _206
REMARK   82  A    between atoms: _205  and  _208
REMARK   83  A    between atoms: _208  and  _209
REMARK   84  A    between atoms: _214  and  _216
REMARK   85  A    between atoms: _216  and  _217
REMARK   86  A    between atoms: _216  and  _219
REMARK   87  A    between atoms: _219  and  _220
REMARK   88  A    between atoms: _223  and  _225
REMARK   89  A    between atoms: _225  and  _226
REMARK   90  A    between atoms: _225  and  _228
REMARK   91  A    between atoms: _228  and  _229
REMARK   92  A    between atoms: _231  and  _233
REMARK   93  A    between atoms: _233  and  _234
REMARK   94  A    between atoms: _233  and  _236
REMARK   95  A    between atoms: _236  and  _237
REMARK   96  A    between atoms: _240  and  _242
REMARK   97  A    between atoms: _242  and  _243
REMARK   98  A    between atoms: _245  and  _247
REMARK   99  A    between atoms: _247  and  _248
REMARK  100  A    between atoms: _250  and  _252
REMARK  101  A    between atoms: _252  and  _253
REMARK  102  A    between atoms: _252  and  _255
REMARK  103  A    between atoms: _255  and  _256
REMARK  104  A    between atoms: _266  and  _268
REMARK  105  A    between atoms: _268  and  _269
REMARK  106  A    between atoms: _268  and  _271
REMARK  107  A    between atoms: _271  and  _272
REMARK  108  A    between atoms: _275  and  _277
REMARK  109  A    between atoms: _277  and  _278
REMARK  110  A    between atoms: _277  and  _280
REMARK  111  A    between atoms: _280  and  _281
REMARK  112  A    between atoms: _284  and  _286
REMARK  113  A    between atoms: _286  and  _287
REMARK  114  A    between atoms: _286  and  _289
REMARK  115  A    between atoms: _289  and  _290
REMARK  116  A    between atoms: _292  and  _294
REMARK  117  A    between atoms: _294  and  _295
REMARK  118  A    between atoms: _294  and  _297
REMARK  119  A    between atoms: _297  and  _298
REMARK  120  A    between atoms: _301  and  _303
REMARK  121  A    between atoms: _303  and  _304
REMARK  122  A    between atoms: _303  and  _306
REMARK  123  A    between atoms: _306  and  _307
REMARK  124  A    between atoms: _310  and  _312
REMARK  125  A    between atoms: _312  and  _313
REMARK  126  A    between atoms: _312  and  _315
REMARK  127  A    between atoms: _315  and  _316
REMARK  128  A    between atoms: _319  and  _321
REMARK  129  A    between atoms: _321  and  _322
REMARK  130  A    between atoms: _321  and  _324
REMARK  131  A    between atoms: _324  and  _325
REMARK  132  A    between atoms: _335  and  _337
REMARK  133  A    between atoms: _337  and  _338
REMARK  134  A    between atoms: _337  and  _340
REMARK  135  A    between atoms: _340  and  _341
REMARK  136  A    between atoms: _341  and  _342
REMARK  137  A    between atoms: _345  and  _347
REMARK  138  A    between atoms: _347  and  _348
REMARK  139  A    between atoms: _347  and  _350
REMARK  140  A    between atoms: _350  and  _351
REMARK  141  A    between atoms: _357  and  _359
REMARK  142  A    between atoms: _359  and  _360
REMARK  143  A    between atoms: _363  and  _365
REMARK  144  A    between atoms: _365  and  _366
REMARK  145  A    between atoms: _365  and  _368
REMARK  146  A    between atoms: _368  and  _369
REMARK  147  A    between atoms: _371  and  _373
REMARK  148  A    between atoms: _373  and  _374
REMARK  149  A    between atoms: _377  and  _379
REMARK  150  A    between atoms: _379  and  _380
REMARK  151  A    between atoms: _379  and  _382
REMARK  152  A    between atoms: _382  and  _383
REMARK  153  A    between atoms: _386  and  _388
REMARK  154  A    between atoms: _388  and  _389
REMARK  155  A    between atoms: _388  and  _391
REMARK  156  A    between atoms: _391  and  _392
REMARK  157  A    between atoms: _398  and  _400
REMARK  158  A    between atoms: _400  and  _401
REMARK  159  A    between atoms: _400  and  _403
REMARK  160  A    between atoms: _403  and  _404
REMARK  161  A    between atoms: _404  and  _405
REMARK  162  A    between atoms: _407  and  _409
REMARK  163  A    between atoms: _409  and  _410
REMARK  164  A    between atoms: _409  and  _412
REMARK  165  A    between atoms: _412  and  _413
REMARK  166  A    between atoms: _418  and  _419
REMARK  167  A    between atoms: _421  and  _423
REMARK  168  A    between atoms: _423  and  _424
REMARK  169  A    between atoms: _423  and  _426
REMARK  170  A    between atoms: _426  and  _427
REMARK  171  A    between atoms: _430  and  _432
REMARK  172  A    between atoms: _432  and  _433
REMARK  173  A    between atoms: _432  and  _435
REMARK  174  A    between atoms: _435  and  _436
REMARK  175  A    between atoms: _442  and  _444
REMARK  176  A    between atoms: _444  and  _445
REMARK  177  A    between atoms: _444  and  _447
REMARK  178  A    between atoms: _447  and  _448
REMARK  179  A    between atoms: _448  and  _449
REMARK  180  A    between atoms: _454  and  _456
REMARK  181  A    between atoms: _456  and  _457
REMARK  182  A    between atoms: _456  and  _459
REMARK  183  A    between atoms: _459  and  _460
REMARK  184  A    between atoms: _463  and  _465
REMARK  185  A    between atoms: _465  and  _466
REMARK  186  A    between atoms: _469  and  _471
REMARK  187  A    between atoms: _471  and  _472
REMARK  188  A    between atoms: _471  and  _474
REMARK  189  A    between atoms: _474  and  _475
REMARK  190  A    between atoms: _475  and  _476
REMARK  191  A    between atoms: _478  and  _480
REMARK  192  A    between atoms: _480  and  _481
REMARK  193  A    between atoms: _480  and  _483
REMARK  194  A    between atoms: _483  and  _484
REMARK  195  A    between atoms: _489  and  _490
REMARK  196  A    between atoms: _492  and  _494
REMARK  197  A    between atoms: _494  and  _495
REMARK  198  A    between atoms: _497  and  _499
REMARK  199  A    between atoms: _499  and  _500
REMARK  200  A    between atoms: _499  and  _502
REMARK  201  A    between atoms: _502  and  _503
REMARK  202  A    between atoms: _503  and  _504
REMARK  203  A    between atoms: _504  and  _505
REMARK  204  A    between atoms: _514  and  _516
REMARK  205  A    between atoms: _516  and  _517
REMARK  206  A    between atoms: _516  and  _519
REMARK  207  A    between atoms: _519  and  _520
REMARK  208  A    between atoms: _530  and  _532
REMARK  209  A    between atoms: _532  and  _533
REMARK  210  A    between atoms: _532  and  _535
REMARK  211  A    between atoms: _535  and  _536
REMARK  212  A    between atoms: _536  and  _537
REMARK  213  A    between atoms: _540  and  _542
REMARK  214  A    between atoms: _542  and  _543
REMARK  215  A    between atoms: _542  and  _545
REMARK  216  A    between atoms: _545  and  _546
REMARK  217  A    between atoms: _551  and  _553
REMARK  218  A    between atoms: _553  and  _554
REMARK  219  A    between atoms: _556  and  _558
REMARK  220  A    between atoms: _558  and  _559
REMARK  221  A    between atoms: _558  and  _561
REMARK  222  A    between atoms: _561  and  _562
REMARK  223  A    between atoms: _565  and  _567
REMARK  224  A    between atoms: _567  and  _568
REMARK  225  A    between atoms: _567  and  _570
REMARK  226  A    between atoms: _573  and  _575
REMARK  227  A    between atoms: _575  and  _576
REMARK  228  A    between atoms: _575  and  _578
REMARK  229  A    between atoms: _578  and  _579
REMARK  230  A    between atoms: _582  and  _584
REMARK  231  A    between atoms: _584  and  _585
REMARK  232  A    between atoms: _584  and  _587
REMARK  233  A    between atoms: _587  and  _588
REMARK  234  A    between atoms: _594  and  _596
REMARK  235  A    between atoms: _596  and  _597
REMARK  236  A    between atoms: _596  and  _599
REMARK  237  A    between atoms: _599  and  _600
REMARK  238  A    between atoms: _602  and  _604
REMARK  239  A    between atoms: _604  and  _605
REMARK  240  A    between atoms: _604  and  _607
REMARK  241  A    between atoms: _607  and  _608
REMARK  242  A    between atoms: _618  and  _620
REMARK  243  A    between atoms: _620  and  _621
REMARK  244  A    between atoms: _620  and  _623
REMARK  245  A    between atoms: _623  and  _624
REMARK  246  A    between atoms: _624  and  _625
REMARK  247  A    between atoms: _628  and  _630
REMARK  248  A    between atoms: _630  and  _631
REMARK  249  A    between atoms: _630  and  _633
REMARK  250  A    between atoms: _633  and  _634
REMARK  251  A    between atoms: _637  and  _639
REMARK  252  A    between atoms: _639  and  _640
REMARK                            x       y       z     vdW  Elec       q    Type
REMARK                         _______ _______ _______ _____ _____    ______ ____
ROOT
ATOM      1  O   HOH     1      21.958  75.827  -6.226  0.00  0.00    +0.000 OA
ENDROOT
TORSDOF 0
