REMARK  Name = ../refined-set-2016/2boj/2boj_pocket.pdb
REMARK  105 active torsions:
REMARK  status: ('A' for Active; 'I' for Inactive)
REMARK    1  A    between atoms: _1  and  _3
REMARK    2  A    between atoms: _3  and  _4
REMARK    3  A    between atoms: _7  and  _9
REMARK    4  A    between atoms: _9  and  _10
REMARK    5  A    between atoms: _9  and  _12
REMARK    6  A    between atoms: _10  and  _11
REMARK    7  A    between atoms: _10  and  _18
REMARK    8  A    between atoms: _11  and  CA_258
REMARK    9  A    between atoms: _12  and  _13
REMARK   10  A    between atoms: _18  and  _20
REMARK   11  A    between atoms: _20  and  _21
REMARK   12  A    between atoms: _20  and  _23
REMARK   13  A    between atoms: _23  and  _24
REMARK   14  A    between atoms: _26  and  _28
REMARK   15  A    between atoms: _28  and  _29
REMARK   16  A    between atoms: _28  and  _31
REMARK   17  A    between atoms: _31  and  _32
REMARK   18  A    between atoms: _34  and  _36
REMARK   19  A    between atoms: _36  and  _37
REMARK   20  A    between atoms: _39  and  _41
REMARK   21  A    between atoms: _41  and  _42
REMARK   22  A    between atoms: _41  and  _44
REMARK   23  A    between atoms: _44  and  _45
REMARK   24  A    between atoms: _48  and  _50
REMARK   25  A    between atoms: _50  and  _51
REMARK   26  A    between atoms: _50  and  _53
REMARK   27  A    between atoms: _53  and  _54
REMARK   28  A    between atoms: _54  and  _55
REMARK   29  A    between atoms: _60  and  _62
REMARK   30  A    between atoms: _62  and  _63
REMARK   31  A    between atoms: _62  and  _65
REMARK   32  A    between atoms: _65  and  _66
REMARK   33  A    between atoms: _66  and  _67
REMARK   34  A    between atoms: _72  and  _74
REMARK   35  A    between atoms: _74  and  _75
REMARK   36  A    between atoms: _74  and  _77
REMARK   37  A    between atoms: _77  and  _78
REMARK   38  A    between atoms: _80  and  _82
REMARK   39  A    between atoms: _82  and  _83
REMARK   40  A    between atoms: _82  and  _85
REMARK   41  A    between atoms: _85  and  _86
REMARK   42  A    between atoms: _89  and  _91
REMARK   43  A    between atoms: _91  and  _92
REMARK   44  A    between atoms: _91  and  _94
REMARK   45  A    between atoms: _94  and  _95
REMARK   46  A    between atoms: _100  and  _102
REMARK   47  A    between atoms: _102  and  _103
REMARK   48  A    between atoms: _102  and  _105
REMARK   49  A    between atoms: _108  and  _110
REMARK   50  A    between atoms: _110  and  _111
REMARK   51  A    between atoms: _110  and  _113
REMARK   52  A    between atoms: _113  and  _114
REMARK   53  A    between atoms: _114  and  _115
REMARK   54  A    between atoms: _115  and  _116
REMARK   55  A    between atoms: _125  and  _127
REMARK   56  A    between atoms: _127  and  _128
REMARK   57  A    between atoms: _127  and  _130
REMARK   58  A    between atoms: _130  and  _131
REMARK   59  A    between atoms: _133  and  _135
REMARK   60  A    between atoms: _135  and  _136
REMARK   61  A    between atoms: _135  and  _138
REMARK   62  A    between atoms: _138  and  _139
REMARK   63  A    between atoms: _141  and  _143
REMARK   64  A    between atoms: _143  and  _144
REMARK   65  A    between atoms: _143  and  _146
REMARK   66  A    between atoms: _146  and  _147
REMARK   67  A    between atoms: _147  and  _148
REMARK   68  A    between atoms: _151  and  _153
REMARK   69  A    between atoms: _153  and  _154
REMARK   70  A    between atoms: _153  and  _156
REMARK   71  A    between atoms: _156  and  _157
REMARK   72  A    between atoms: _160  and  _162
REMARK   73  A    between atoms: _162  and  _163
REMARK   74  A    between atoms: _165  and  _167
REMARK   75  A    between atoms: _167  and  _168
REMARK   76  A    between atoms: _167  and  _170
REMARK   77  A    between atoms: _170  and  _171
REMARK   78  A    between atoms: _174  and  _176
REMARK   79  A    between atoms: _185  and  _188
REMARK   80  A    between atoms: _188  and  _189
REMARK   81  A    between atoms: _196  and  _197
REMARK   82  A    between atoms: _203  and  _205
REMARK   83  A    between atoms: _205  and  _206
REMARK   84  A    between atoms: _205  and  _208
REMARK   85  A    between atoms: _208  and  _209
REMARK   86  A    between atoms: _214  and  _215
REMARK   87  A    between atoms: _217  and  _219
REMARK   88  A    between atoms: _219  and  _220
REMARK   89  A    between atoms: _219  and  _222
REMARK   90  A    between atoms: _222  and  _223
REMARK   91  A    between atoms: _223  and  _224
REMARK   92  A    between atoms: _223  and  _225
REMARK   93  A    between atoms: _224  and  CA_258
REMARK   94  A    between atoms: _228  and  _230
REMARK   95  A    between atoms: _230  and  _231
REMARK   96  A    between atoms: _230  and  _233
REMARK   97  A    between atoms: _233  and  _234
REMARK   98  A    between atoms: _237  and  _239
REMARK   99  A    between atoms: _239  and  _240
REMARK  100  A    between atoms: _243  and  _245
REMARK  101  A    between atoms: _245  and  _246
REMARK  102  A    between atoms: _245  and  _248
REMARK  103  A    between atoms: _248  and  _249
REMARK  104  A    between atoms: _252  and  _254
REMARK  105  A    between atoms: _254  and  _255
REMARK                            x       y       z     vdW  Elec       q    Type
REMARK                         _______ _______ _______ _____ _____    ______ ____
ROOT
ATOM      1  N   UNK A   0      17.507  28.212  25.224  0.00  0.00    +0.000 N 
ATOM      2  H   UNK A   0      17.965  27.279  25.266  0.00  0.00    +0.000 HD
ATOM      3  C   TYR A   9      17.874  29.077  24.296  0.00  0.00    +0.000 C 
ATOM      4  O   TYR A   9      17.429  30.211  24.247  0.00  0.00    +0.000 OA
ENDROOT
BRANCH   1   5
ATOM      5  C   UNK A   0      16.464  28.550  26.194  0.00  0.00    +0.000 C 
BRANCH   5   6
ATOM      6  C   UNK A   0      17.047  28.603  27.605  0.00  0.00    +0.000 C 
ATOM      7  O   UNK A   0      16.312  28.700  28.587  0.00  0.00    +0.000 OA
ATOM      8  N   ASP A  11      18.377  28.535  27.710  0.00  0.00    +0.000 N 
ATOM      9  H   ASP A  11      18.968  28.643  26.861  0.00  0.00    +0.000 HD
BRANCH   8  10
ATOM     10  CA  ASP A  11      19.012  28.309  29.017  0.00  0.00    +0.000 C 
BRANCH  10  11
ATOM     11  C   ASP A  11      18.699  29.450  29.971  0.00  0.00    +0.000 C 
ATOM     12  O   ASP A  11      18.381  29.230  31.142  0.00  0.00    +0.000 OA
ATOM     13  N   ALA A  12      18.767  30.663  29.442  0.00  0.00    +0.000 N 
ATOM     14  H   ALA A  12      19.312  30.808  28.568  0.00  0.00    +0.000 HD
BRANCH  13  15
ATOM     15  CA  ALA A  12      18.095  31.795  30.058  0.00  0.00    +0.000 C 
ATOM     16  CB  ALA A  12      19.066  32.760  30.700  0.00  0.00    +0.000 C 
BRANCH  15  17
ATOM     17  C   ALA A  12      17.320  32.463  28.952  0.00  0.00    +0.000 C 
ATOM     18  O   ALA A  12      17.862  32.722  27.863  0.00  0.00    +0.000 OA
ENDBRANCH  15  17
ENDBRANCH  13  15
ENDBRANCH  10  11
BRANCH  10  19
ATOM     19  CB  ASP A  11      20.504  28.089  28.854  0.00  0.00    +0.000 C 
BRANCH  19  20
ATOM     20  CG  ASP A  11      20.795  26.842  28.039  0.00  0.00    +0.000 C 
ATOM     21  OD2 ASP A  11      19.991  25.889  28.109  0.00  0.00    +0.000 OA
ATOM     22  OD1 ASP A  11      21.796  26.830  27.319  0.00  0.00    +0.000 OA
ENDBRANCH  19  20
ENDBRANCH  10  19
ENDBRANCH   8  10
ENDBRANCH   5   6
BRANCH   5  23
ATOM     23  C   UNK A   0      15.328  27.515  26.113  0.00  0.00    +0.000 C 
BRANCH  23  24
ATOM     24  C   UNK A   0      15.704  26.172  26.765  0.00  0.00    +0.000 C 
BRANCH  24  25
ATOM     25  N   UNK A   0      14.739  25.255  26.874  0.00  0.00    +0.000 NA
ATOM     26  H   UNK A   0      14.944  24.334  27.312  0.00  0.00    +0.000 HD
ATOM     27  H   UNK A   0      13.783  25.462  26.521  0.00  0.00    +0.000 HD
ENDBRANCH  24  25
BRANCH  24  28
ATOM     28  O   UNK A   0      16.858  25.976  27.169  0.00  0.00    +0.000 OA
BRANCH  28  29
ATOM     29 CA   UNK A   0      18.175  24.321  28.091  0.00  0.00    +0.000 Ca
BRANCH  29  30
ATOM     30  O   UNK A   0      17.702  25.295  30.156  0.00  0.00    +0.000 OA
BRANCH  30  31
ATOM     31  C   UNK A   0      17.269  25.498  31.295  0.00  0.00    +0.000 C 
BRANCH  31  32
ATOM     32  N   SER A   1      17.946  25.162  32.386  0.00  0.00    +0.000 NA
ATOM     33  H   SER A   1      17.516  25.302  33.322  0.00  0.00    +0.000 HD
BRANCH  32  34
ATOM     34  CA  SER A   1      19.291  24.597  32.285  0.00  0.00    +0.000 C 
BRANCH  34  35
ATOM     35  C   SER A   1      19.763  24.006  33.599  0.00  0.00    +0.000 C 
ATOM     36  O   SER A   1      19.282  24.384  34.667  0.00  0.00    +0.000 OA
ATOM     37  N   GLU A   2      20.737  23.104  33.515  0.00  0.00    +0.000 N 
ATOM     38  H   GLU A   2      21.035  22.768  32.577  0.00  0.00    +0.000 HD
BRANCH  37  39
ATOM     39  CA  GLU A   2      21.402  22.570  34.705  0.00  0.00    +0.000 C 
BRANCH  39  40
ATOM     40  C   GLU A   2      22.436  23.568  35.229  0.00  0.00    +0.000 C 
ATOM     41  O   GLU A   2      22.942  23.442  36.348  0.00  0.00    +0.000 OA
ATOM     42  N   ASP A   3      22.730  24.572  34.405  0.00  0.00    +0.000 N 
ATOM     43  H   ASP A   3      22.289  24.590  33.463  0.00  0.00    +0.000 HD
BRANCH  42  44
ATOM     44  CA  ASP A   3      23.642  25.643  34.768  0.00  0.00    +0.000 C 
BRANCH  44  45
ATOM     45  C   ASP A   3      22.901  26.774  35.448  0.00  0.00    +0.000 C 
ATOM     46  N   GLY A   4      23.533  27.325  36.486  0.00  0.00    +0.000 N 
ATOM     47  H   GLY A   4      24.442  26.924  36.793  0.00  0.00    +0.000 HD
ATOM     48  O   ASP A   3      21.770  27.142  35.047  0.00  0.00    +0.000 OA
BRANCH  46  49
ATOM     49  CA  GLY A   4      22.985  28.480  37.208  0.00  0.00    +0.000 C 
BRANCH  49  50
ATOM     50  C   GLY A   4      23.175  29.735  36.350  0.00  0.00    +0.000 C 
ATOM     51  N   THR A   5      22.063  30.398  36.025  0.00  0.00    +0.000 N 
ATOM     52  H   THR A   5      21.160  30.097  36.444  0.00  0.00    +0.000 HD
ATOM     53  O   GLY A   4      24.305  30.078  35.977  0.00  0.00    +0.000 OA
BRANCH  51  54
ATOM     54  CA  THR A   5      22.067  31.532  35.102  0.00  0.00    +0.000 C 
BRANCH  54  55
ATOM     55  C   THR A   5      22.260  32.844  35.854  0.00  0.00    +0.000 C 
ATOM     56  O   THR A   5      21.613  33.061  36.868  0.00  0.00    +0.000 OA
ENDBRANCH  54  55
BRANCH  54  57
ATOM     57  CB  THR A   5      20.727  31.600  34.349  0.00  0.00    +0.000 C 
BRANCH  57  58
ATOM     58  CG  THR A   5      20.344  30.281  33.610  0.00  0.00    +0.000 C 
BRANCH  58  59
ATOM     59  CD  THR A   5      21.307  29.921  32.504  0.00  0.00    +0.000 C 
ATOM     60  NE2 THR A   5      21.782  28.665  32.502  0.00  0.00    +0.000 N 
ATOM     61 HE21 THR A   5      21.491  27.998  33.245  0.00  0.00    +0.000 HD
ATOM     62 HE22 THR A   5      22.441  28.359  31.758  0.00  0.00    +0.000 HD
ATOM     63  OE1 THR A   5      21.621  30.756  31.643  0.00  0.00    +0.000 OA
ENDBRANCH  58  59
ENDBRANCH  57  58
ENDBRANCH  54  57
ENDBRANCH  51  54
ENDBRANCH  49  50
BRANCH  49  64
ATOM     64  CB  GLY A   4      23.599  28.613  38.617  0.00  0.00    +0.000 C 
ATOM     65  CG2 GLY A   4      23.131  29.917  39.316  0.00  0.00    +0.000 C 
BRANCH  64  66
ATOM     66  OG1 GLY A   4      23.187  27.479  39.400  0.00  0.00    +0.000 OA
ATOM     67  HG1 GLY A   4      23.506  26.647  38.968  0.00  0.00    +0.000 HD
ENDBRANCH  64  66
ENDBRANCH  49  64
ENDBRANCH  46  49
ENDBRANCH  44  45
ENDBRANCH  42  44
ENDBRANCH  39  40
BRANCH  39  68
ATOM     68  CB  GLU A   2      22.042  21.225  34.378  0.00  0.00    +0.000 C 
BRANCH  68  69
ATOM     69  O   GLU A   2      21.049  20.337  33.891  0.00  0.00    +0.000 OA
ATOM     70  H   GLU A   2      21.464  19.464  33.679  0.00  0.00    +0.000 HD
ENDBRANCH  68  69
ENDBRANCH  39  68
ENDBRANCH  37  39
ENDBRANCH  34  35
BRANCH  34  71
ATOM     71  CB  SER A   1      20.298  25.686  31.863  0.00  0.00    +0.000 C 
BRANCH  71  72
ATOM     72  OG  SER A   1      21.619  25.148  31.776  0.00  0.00    +0.000 OA
ATOM     73  H   SER A   1      22.248  25.863  31.504  0.00  0.00    +0.000 HD
ENDBRANCH  71  72
ENDBRANCH  34  71
ENDBRANCH  32  34
ENDBRANCH  31  32
BRANCH  31  74
ATOM     74  C   UNK A   0      15.919  26.191  31.514  0.00  0.00    +0.000 C 
BRANCH  74  77
ATOM     75  C   UNK A   0      15.342  28.135  32.915  0.00  0.00    +0.000 C 
ATOM     76  O   UNK A   0      14.304  27.619  33.363  0.00  0.00    +0.000 OA
ATOM     77  N   UNK A   0      16.137  27.556  32.011  0.00  0.00    +0.000 N 
ATOM     78  H   UNK A   0      16.946  28.096  31.643  0.00  0.00    +0.000 HD
BRANCH  75  79
ATOM     79  C   UNK A   0      15.775  29.512  33.369  0.00  0.00    +0.000 C 
ATOM     80  C   UNK A   0      16.569  29.424  34.667  0.00  0.00    +0.000 C 
BRANCH  79  81
ATOM     81  N   UNK A   0      14.631  30.418  33.512  0.00  0.00    +0.000 NA
ATOM     82  H   UNK A   0      13.888  30.208  34.209  0.00  0.00    +0.000 HD
ENDBRANCH  79  81
ENDBRANCH  75  79
ENDBRANCH  74  77
BRANCH  74  83
ATOM     83  C   UNK A   0      15.128  26.198  30.211  0.00  0.00    +0.000 C 
BRANCH  83  84
ATOM     84  C   UNK A   0      13.703  26.663  30.393  0.00  0.00    +0.000 C 
ATOM     85  O   UNK A   0      12.838  25.899  30.825  0.00  0.00    +0.000 OA
ATOM     86  N   UNK A   0      13.442  27.911  30.013  0.00  0.00    +0.000 N 
ATOM     87  H   UNK A   0      12.472  28.281  30.074  0.00  0.00    +0.000 HD
ATOM     88  H   UNK A   0      14.208  28.517  29.655  0.00  0.00    +0.000 HD
ENDBRANCH  83  84
ENDBRANCH  74  83
ENDBRANCH  31  74
ENDBRANCH  30  31
ENDBRANCH  29  30
ENDBRANCH  28  29
ENDBRANCH  24  28
ENDBRANCH  23  24
ENDBRANCH   5  23
ENDBRANCH   1   5
BRANCH   3  89
ATOM     89  CA  TYR A   9      18.943  28.593  23.300  0.00  0.00    +0.000 C 
BRANCH  89  90
ATOM     90  N   TYR A   9      19.036  27.116  23.146  0.00  0.00    +0.000 N 
ATOM     91  H   TYR A   9      19.942  26.653  23.362  0.00  0.00    +0.000 HD
ATOM     92  C   UNK A   8      18.011  26.351  22.743  0.00  0.00    +0.000 C 
ATOM     93  O   UNK A   8      16.876  26.797  22.560  0.00  0.00    +0.000 OA
BRANCH  92  94
ATOM     94  C   UNK A   8      18.283  24.850  22.512  0.00  0.00    +0.000 C 
ATOM     95  C   UNK A   8      17.620  23.936  23.567  0.00  0.00    +0.000 C 
ATOM     96  C   UNK A   8      18.166  24.126  24.982  0.00  0.00    +0.000 C 
ATOM     97  O   UNK A   8      17.551  23.509  25.883  0.00  0.00    +0.000 OA
ATOM     98  O   UNK A   8      19.172  24.847  25.237  0.00  0.00    +0.000 OA
ATOM     99 CA   UNK A   8      21.328  24.703  26.114  0.00  0.00    +0.000 Ca
ATOM    100  O   UNK A   6      21.640  22.860  24.810  0.00  0.00    +0.000 OA
ATOM    101  C   UNK A   6      21.076  21.742  24.714  0.00  0.00    +0.000 C 
ATOM    102  O   UNK A   6      20.053  21.456  25.358  0.00  0.00    +0.000 OA
ATOM    103  C   UNK A   6      21.692  20.667  23.822  0.00  0.00    +0.000 C 
ATOM    104  C   UNK A   6      22.617  21.248  22.749  0.00  0.00    +0.000 C 
ATOM    105  C   UNK A   6      21.854  22.233  21.854  0.00  0.00    +0.000 C 
ATOM    106  N   ASN A   7      22.303  23.488  21.841  0.00  0.00    +0.000 N 
ATOM    107  H   ASN A   7      23.096  23.741  22.465  0.00  0.00    +0.000 HD
ATOM    108  CA  ASN A   7      21.725  24.527  20.983  0.00  0.00    +0.000 C 
ATOM    109  C   ASN A   7      20.215  24.656  21.085  0.00  0.00    +0.000 C 
ATOM    110  O   ASN A   7      19.532  24.881  20.077  0.00  0.00    +0.000 OA
ATOM    111  O   UNK A   6      20.860  21.862  21.228  0.00  0.00    +0.000 OA
ATOM    112  N   UNK A   8      19.695  24.531  22.301  0.00  0.00    +0.000 N 
ATOM    113  H   UNK A   8      20.285  24.210  23.095  0.00  0.00    +0.000 HD
BRANCH 104 114
ATOM    114  N   UNK A   6      23.837  21.812  23.335  0.00  0.00    +0.000 N 
ATOM    115  H   UNK A   6      23.788  22.354  24.221  0.00  0.00    +0.000 HD
ATOM    116  C   THR A   5      25.010  21.627  22.726  0.00  0.00    +0.000 C 
ATOM    117  O   THR A   5      25.109  21.055  21.620  0.00  0.00    +0.000 OA
BRANCH 116 118
ATOM    118  CA  THR A   5      26.266  22.149  23.428  0.00  0.00    +0.000 C 
BRANCH 118 119
ATOM    119  N   THR A   5      26.007  22.802  24.705  0.00  0.00    +0.000 N 
ATOM    120  H   THR A   5      25.511  22.268  25.447  0.00  0.00    +0.000 HD
ATOM    121  C   GLY A   4      26.379  24.053  24.961  0.00  0.00    +0.000 C 
ATOM    122  O   GLY A   4      26.748  24.844  24.100  0.00  0.00    +0.000 OA
BRANCH 121 123
ATOM    123  CA  GLY A   4      26.280  24.477  26.406  0.00  0.00    +0.000 C 
BRANCH 123 124
ATOM    124  N   GLY A   4      25.722  25.825  26.577  0.00  0.00    +0.000 N 
ATOM    125  C   ASP A   3      26.154  26.619  27.548  0.00  0.00    +0.000 C 
ATOM    126  O   ASP A   3      27.160  26.363  28.221  0.00  0.00    +0.000 OA
ATOM    127  H   GLY A   4      24.980  26.161  25.930  0.00  0.00    +0.000 HD
BRANCH 125 128
ATOM    128  CA  ASP A   3      25.340  27.900  27.794  0.00  0.00    +0.000 C 
BRANCH 128 129
ATOM    129  N   ASP A   3      24.202  28.033  26.872  0.00  0.00    +0.000 N 
ATOM    130  H   ASP A   3      23.371  27.423  27.006  0.00  0.00    +0.000 HD
ATOM    131  C   GLU A   2      24.204  28.908  25.875  0.00  0.00    +0.000 C 
ATOM    132  O   GLU A   2      25.163  29.645  25.626  0.00  0.00    +0.000 OA
BRANCH 131 133
ATOM    133  CA  GLU A   2      22.921  28.992  25.045  0.00  0.00    +0.000 C 
BRANCH 133 134
ATOM    134  N   GLU A   2      22.436  30.369  25.053  0.00  0.00    +0.000 N 
ATOM    135  C   SER A   1      21.210  30.693  25.447  0.00  0.00    +0.000 C 
ATOM    136  O   SER A   1      20.384  29.885  25.894  0.00  0.00    +0.000 OA
ATOM    137  H   GLU A   2      23.076  31.126  24.738  0.00  0.00    +0.000 HD
BRANCH 135 138
ATOM    138  CA  SER A   1      20.864  32.165  25.351  0.00  0.00    +0.000 C 
BRANCH 138 139
ATOM    139  N   SER A   1      19.436  32.339  25.078  0.00  0.00    +0.000 NA
ATOM    140  H   SER A   1      18.756  31.631  25.420  0.00  0.00    +0.000 HD
ENDBRANCH 138 139
BRANCH 138 141
ATOM    141  CB  SER A   1      21.259  32.883  26.647  0.00  0.00    +0.000 C 
BRANCH 141 142
ATOM    142  OG  SER A   1      20.568  32.345  27.759  0.00  0.00    +0.000 OA
ATOM    143  H   SER A   1      19.593  32.450  27.623  0.00  0.00    +0.000 HD
ENDBRANCH 141 142
ENDBRANCH 138 141
ENDBRANCH 135 138
ENDBRANCH 133 134
BRANCH 133 144
ATOM    144  CB  GLU A   2      23.180  28.542  23.608  0.00  0.00    +0.000 C 
BRANCH 144 145
ATOM    145  CG  GLU A   2      23.765  27.129  23.496  0.00  0.00    +0.000 C 
BRANCH 145 146
ATOM    146  CD  GLU A   2      22.933  26.110  24.280  0.00  0.00    +0.000 C 
ATOM    147  OE2 GLU A   2      23.534  25.340  25.070  0.00  0.00    +0.000 OA
ATOM    148  OE1 GLU A   2      21.680  26.087  24.120  0.00  0.00    +0.000 OA
ENDBRANCH 145 146
ENDBRANCH 144 145
ENDBRANCH 133 144
ENDBRANCH 131 133
ENDBRANCH 128 129
BRANCH 128 149
ATOM    149  CB  ASP A   3      24.867  27.985  29.262  0.00  0.00    +0.000 C 
BRANCH 149 150
ATOM    150  CG  ASP A   3      24.014  26.789  29.702  0.00  0.00    +0.000 C 
ATOM    151  OD2 ASP A   3      23.200  26.980  30.627  0.00  0.00    +0.000 OA
ATOM    152  OD1 ASP A   3      24.148  25.669  29.141  0.00  0.00    +0.000 OA
ENDBRANCH 149 150
ENDBRANCH 128 149
ENDBRANCH 125 128
ENDBRANCH 123 124
ENDBRANCH 121 123
ENDBRANCH 118 119
BRANCH 118 153
ATOM    153  CB  THR A   5      27.243  20.964  23.613  0.00  0.00    +0.000 C 
ATOM    154  CG2 THR A   5      28.604  21.460  24.113  0.00  0.00    +0.000 C 
BRANCH 153 155
ATOM    155  OG1 THR A   5      26.703  20.068  24.593  0.00  0.00    +0.000 OA
ATOM    156  HG1 THR A   5      27.322  19.306  24.718  0.00  0.00    +0.000 HD
ENDBRANCH 153 155
ENDBRANCH 118 153
ENDBRANCH 116 118
ENDBRANCH 104 114
BRANCH 108 157
ATOM    157  CB  ASN A   7      22.144  24.316  19.530  0.00  0.00    +0.000 C 
BRANCH 157 158
ATOM    158  CG  ASN A   7      23.627  24.519  19.340  0.00  0.00    +0.000 C 
ATOM    159  OD1 ASN A   7      24.244  25.348  20.029  0.00  0.00    +0.000 OA
ATOM    160  ND2 ASN A   7      24.223  23.753  18.435  0.00  0.00    +0.000 N 
ATOM    161 HD21 ASN A   7      25.248  23.833  18.280  0.00  0.00    +0.000 HD
ATOM    162 HD22 ASN A   7      23.665  23.072  17.881  0.00  0.00    +0.000 HD
ENDBRANCH 157 158
ENDBRANCH 108 157
ENDBRANCH  92  94
ENDBRANCH  89  90
BRANCH  89 163
ATOM    163  CB  TYR A   9      18.839  29.311  21.919  0.00  0.00    +0.000 C 
BRANCH 163 164
ATOM    164  CG  TYR A   9      20.200  29.376  21.297  0.00  0.00    +0.000 A 
ATOM    165  CD2 TYR A   9      21.032  30.471  21.534  0.00  0.00    +0.000 A 
ATOM    166  CE2 TYR A   9      22.314  30.516  21.029  0.00  0.00    +0.000 A 
ATOM    167  CZ  TYR A   9      22.789  29.452  20.282  0.00  0.00    +0.000 A 
ATOM    168  CE1 TYR A   9      22.003  28.337  20.049  0.00  0.00    +0.000 A 
ATOM    169  CD1 TYR A   9      20.706  28.297  20.560  0.00  0.00    +0.000 A 
BRANCH 167 170
ATOM    170  OH  TYR A   9      24.069  29.532  19.812  0.00  0.00    +0.000 OA
ATOM    171  HH  TYR A   9      24.464  30.400  20.079  0.00  0.00    +0.000 HD
ENDBRANCH 167 170
ENDBRANCH 163 164
ENDBRANCH  89 163
ENDBRANCH   3  89
TORSDOF 69
REMARK  Name = ../refined-set-2016/2boj/2boj_pocket.pdb
REMARK  105 active torsions:
REMARK  status: ('A' for Active; 'I' for Inactive)
REMARK    1  A    between atoms: _1  and  _3
REMARK    2  A    between atoms: _3  and  _4
REMARK    3  A    between atoms: _7  and  _9
REMARK    4  A    between atoms: _9  and  _10
REMARK    5  A    between atoms: _9  and  _12
REMARK    6  A    between atoms: _10  and  _11
REMARK    7  A    between atoms: _10  and  _18
REMARK    8  A    between atoms: _11  and  CA_258
REMARK    9  A    between atoms: _12  and  _13
REMARK   10  A    between atoms: _18  and  _20
REMARK   11  A    between atoms: _20  and  _21
REMARK   12  A    between atoms: _20  and  _23
REMARK   13  A    between atoms: _23  and  _24
REMARK   14  A    between atoms: _26  and  _28
REMARK   15  A    between atoms: _28  and  _29
REMARK   16  A    between atoms: _28  and  _31
REMARK   17  A    between atoms: _31  and  _32
REMARK   18  A    between atoms: _34  and  _36
REMARK   19  A    between atoms: _36  and  _37
REMARK   20  A    between atoms: _39  and  _41
REMARK   21  A    between atoms: _41  and  _42
REMARK   22  A    between atoms: _41  and  _44
REMARK   23  A    between atoms: _44  and  _45
REMARK   24  A    between atoms: _48  and  _50
REMARK   25  A    between atoms: _50  and  _51
REMARK   26  A    between atoms: _50  and  _53
REMARK   27  A    between atoms: _53  and  _54
REMARK   28  A    between atoms: _54  and  _55
REMARK   29  A    between atoms: _60  and  _62
REMARK   30  A    between atoms: _62  and  _63
REMARK   31  A    between atoms: _62  and  _65
REMARK   32  A    between atoms: _65  and  _66
REMARK   33  A    between atoms: _66  and  _67
REMARK   34  A    between atoms: _72  and  _74
REMARK   35  A    between atoms: _74  and  _75
REMARK   36  A    between atoms: _74  and  _77
REMARK   37  A    between atoms: _77  and  _78
REMARK   38  A    between atoms: _80  and  _82
REMARK   39  A    between atoms: _82  and  _83
REMARK   40  A    between atoms: _82  and  _85
REMARK   41  A    between atoms: _85  and  _86
REMARK   42  A    between atoms: _89  and  _91
REMARK   43  A    between atoms: _91  and  _92
REMARK   44  A    between atoms: _91  and  _94
REMARK   45  A    between atoms: _94  and  _95
REMARK   46  A    between atoms: _100  and  _102
REMARK   47  A    between atoms: _102  and  _103
REMARK   48  A    between atoms: _102  and  _105
REMARK   49  A    between atoms: _108  and  _110
REMARK   50  A    between atoms: _110  and  _111
REMARK   51  A    between atoms: _110  and  _113
REMARK   52  A    between atoms: _113  and  _114
REMARK   53  A    between atoms: _114  and  _115
REMARK   54  A    between atoms: _115  and  _116
REMARK   55  A    between atoms: _125  and  _127
REMARK   56  A    between atoms: _127  and  _128
REMARK   57  A    between atoms: _127  and  _130
REMARK   58  A    between atoms: _130  and  _131
REMARK   59  A    between atoms: _133  and  _135
REMARK   60  A    between atoms: _135  and  _136
REMARK   61  A    between atoms: _135  and  _138
REMARK   62  A    between atoms: _138  and  _139
REMARK   63  A    between atoms: _141  and  _143
REMARK   64  A    between atoms: _143  and  _144
REMARK   65  A    between atoms: _143  and  _146
REMARK   66  A    between atoms: _146  and  _147
REMARK   67  A    between atoms: _147  and  _148
REMARK   68  A    between atoms: _151  and  _153
REMARK   69  A    between atoms: _153  and  _154
REMARK   70  A    between atoms: _153  and  _156
REMARK   71  A    between atoms: _156  and  _157
REMARK   72  A    between atoms: _160  and  _162
REMARK   73  A    between atoms: _162  and  _163
REMARK   74  A    between atoms: _165  and  _167
REMARK   75  A    between atoms: _167  and  _168
REMARK   76  A    between atoms: _167  and  _170
REMARK   77  A    between atoms: _170  and  _171
REMARK   78  A    between atoms: _174  and  _176
REMARK   79  A    between atoms: _185  and  _188
REMARK   80  A    between atoms: _188  and  _189
REMARK   81  A    between atoms: _196  and  _197
REMARK   82  A    between atoms: _203  and  _205
REMARK   83  A    between atoms: _205  and  _206
REMARK   84  A    between atoms: _205  and  _208
REMARK   85  A    between atoms: _208  and  _209
REMARK   86  A    between atoms: _214  and  _215
REMARK   87  A    between atoms: _217  and  _219
REMARK   88  A    between atoms: _219  and  _220
REMARK   89  A    between atoms: _219  and  _222
REMARK   90  A    between atoms: _222  and  _223
REMARK   91  A    between atoms: _223  and  _224
REMARK   92  A    between atoms: _223  and  _225
REMARK   93  A    between atoms: _224  and  CA_258
REMARK   94  A    between atoms: _228  and  _230
REMARK   95  A    between atoms: _230  and  _231
REMARK   96  A    between atoms: _230  and  _233
REMARK   97  A    between atoms: _233  and  _234
REMARK   98  A    between atoms: _237  and  _239
REMARK   99  A    between atoms: _239  and  _240
REMARK  100  A    between atoms: _243  and  _245
REMARK  101  A    between atoms: _245  and  _246
REMARK  102  A    between atoms: _245  and  _248
REMARK  103  A    between atoms: _248  and  _249
REMARK  104  A    between atoms: _252  and  _254
REMARK  105  A    between atoms: _254  and  _255
REMARK                            x       y       z     vdW  Elec       q    Type
REMARK                         _______ _______ _______ _____ _____    ______ ____
ROOT
ATOM      1  C   SER A   2      15.807  24.989  35.567  0.00  0.00    +0.243 C 
ATOM      2  N   THR A   3      15.240  23.788  35.492  0.00  0.00    -0.295 N 
ATOM      3  H   THR A   3      14.923  23.318  36.364  0.00  0.00    +0.150 HD
ATOM      4  O   SER A   2      16.385  25.533  34.622  0.00  0.00    -0.273 OA
ENDROOT
BRANCH   2   5
ATOM      5  CA  THR A   3      15.052  23.111  34.198  0.00  0.00    +0.176 C 
BRANCH   5   6
ATOM      6  C   THR A   3      13.562  23.132  33.810  0.00  0.00    +0.243 C 
ATOM      7  N   ASN A   4      12.788  23.956  34.516  0.00  0.00    -0.298 N 
ATOM      8  H   ASN A   4      13.233  24.584  35.215  0.00  0.00    +0.150 HD
ATOM      9  O   THR A   3      13.130  22.435  32.882  0.00  0.00    -0.273 OA
BRANCH   7  10
ATOM     10  CA  ASN A   4      11.328  24.011  34.345  0.00  0.00    +0.146 C 
BRANCH  10  11
ATOM     11  C   ASN A   4      10.796  25.418  34.135  0.00  0.00    +0.227 C 
ATOM     12  O   ASN A   4       9.651  25.720  34.505  0.00  0.00    -0.286 OA
ENDBRANCH  10  11
BRANCH  10  13
ATOM     13  CB  ASN A   4      10.631  23.394  35.563  0.00  0.00    +0.112 C 
BRANCH  13  14
ATOM     14  CG  ASN A   4      11.024  21.973  35.771  0.00  0.00    +0.222 C 
ATOM     15  ND2 ASN A   4      11.545  21.669  36.960  0.00  0.00    -0.329 N 
ATOM     16 HD21 ASN A   4      11.633  22.402  37.692  0.00  0.00    +0.145 HD
ATOM     17 HD22 ASN A   4      11.864  20.698  37.155  0.00  0.00    +0.145 HD
ATOM     18  OD1 ASN A   4      10.894  21.150  34.865  0.00  0.00    -0.275 OA
ENDBRANCH  13  14
ENDBRANCH  10  13
ENDBRANCH   7  10
ENDBRANCH   5   6
BRANCH   5  19
ATOM     19  CB  THR A   3      15.586  21.665  34.223  0.00  0.00    +0.137 C 
ATOM     20  CG2 THR A   3      17.116  21.649  34.367  0.00  0.00    +0.034 C 
BRANCH  19  21
ATOM     21  OG1 THR A   3      14.983  20.955  35.316  0.00  0.00    -0.382 OA
ATOM     22  HG1 THR A   3      14.000  20.944  35.199  0.00  0.00    +0.210 HD
ENDBRANCH  19  21
ENDBRANCH   5  19
ENDBRANCH   2   5
BRANCH   1  23
ATOM     23  CA  SER A   2      15.684  25.703  36.891  0.00  0.00    +0.178 C 
BRANCH  23  26
ATOM     24  C   GLN A   1      17.296  26.862  38.322  0.00  0.00    +0.238 C 
ATOM     25  O   GLN A   1      16.653  26.671  39.361  0.00  0.00    -0.274 OA
ATOM     26  N   SER A   2      16.891  26.477  37.117  0.00  0.00    -0.295 N 
ATOM     27  H   SER A   2      17.468  26.744  36.294  0.00  0.00    +0.150 HD
BRANCH  24  28
ATOM     28  CA  GLN A   1      18.627  27.604  38.343  0.00  0.00    +0.145 C 
BRANCH  28  29
ATOM     29  N   GLN A   1      18.417  28.832  39.087  0.00  0.00    -0.238 NA
ATOM     30  H   GLN A   1      17.807  28.824  39.929  0.00  0.00    +0.142 HD
ENDBRANCH  28  29
BRANCH  28  31
ATOM     31  CB  GLN A   1      19.728  26.768  39.008  0.00  0.00    +0.036 C 
BRANCH  31  32
ATOM     32  CG  GLN A   1      20.107  25.491  38.263  0.00  0.00    +0.087 C 
BRANCH  32  33
ATOM     33  CD  GLN A   1      19.155  24.347  38.522  0.00  0.00    +0.219 C 
ATOM     34  OE1 GLN A   1      18.807  24.065  39.671  0.00  0.00    -0.275 OA
ATOM     35  NE2 GLN A   1      18.752  23.652  37.456  0.00  0.00    -0.329 N 
ATOM     36 HE21 GLN A   1      18.119  22.836  37.576  0.00  0.00    +0.145 HD
ATOM     37 HE22 GLN A   1      19.071  23.927  36.505  0.00  0.00    +0.145 HD
ENDBRANCH  32  33
ENDBRANCH  31  32
ENDBRANCH  28  31
ENDBRANCH  24  28
ENDBRANCH  23  26
BRANCH  23  38
ATOM     38  CB  SER A   2      14.476  26.629  36.827  0.00  0.00    +0.166 C 
BRANCH  38  39
ATOM     39  OG  SER A   2      13.270  25.898  36.604  0.00  0.00    -0.380 OA
ATOM     40  H   SER A   2      13.134  25.254  37.344  0.00  0.00    +0.211 HD
ENDBRANCH  38  39
ENDBRANCH  23  38
ENDBRANCH   1  23
TORSDOF 17
REMARK  Name = ../refined-set-2016/2boj/2boj_pocket.pdb
REMARK  105 active torsions:
REMARK  status: ('A' for Active; 'I' for Inactive)
REMARK    1  A    between atoms: _1  and  _3
REMARK    2  A    between atoms: _3  and  _4
REMARK    3  A    between atoms: _7  and  _9
REMARK    4  A    between atoms: _9  and  _10
REMARK    5  A    between atoms: _9  and  _12
REMARK    6  A    between atoms: _10  and  _11
REMARK    7  A    between atoms: _10  and  _18
REMARK    8  A    between atoms: _11  and  CA_258
REMARK    9  A    between atoms: _12  and  _13
REMARK   10  A    between atoms: _18  and  _20
REMARK   11  A    between atoms: _20  and  _21
REMARK   12  A    between atoms: _20  and  _23
REMARK   13  A    between atoms: _23  and  _24
REMARK   14  A    between atoms: _26  and  _28
REMARK   15  A    between atoms: _28  and  _29
REMARK   16  A    between atoms: _28  and  _31
REMARK   17  A    between atoms: _31  and  _32
REMARK   18  A    between atoms: _34  and  _36
REMARK   19  A    between atoms: _36  and  _37
REMARK   20  A    between atoms: _39  and  _41
REMARK   21  A    between atoms: _41  and  _42
REMARK   22  A    between atoms: _41  and  _44
REMARK   23  A    between atoms: _44  and  _45
REMARK   24  A    between atoms: _48  and  _50
REMARK   25  A    between atoms: _50  and  _51
REMARK   26  A    between atoms: _50  and  _53
REMARK   27  A    between atoms: _53  and  _54
REMARK   28  A    between atoms: _54  and  _55
REMARK   29  A    between atoms: _60  and  _62
REMARK   30  A    between atoms: _62  and  _63
REMARK   31  A    between atoms: _62  and  _65
REMARK   32  A    between atoms: _65  and  _66
REMARK   33  A    between atoms: _66  and  _67
REMARK   34  A    between atoms: _72  and  _74
REMARK   35  A    between atoms: _74  and  _75
REMARK   36  A    between atoms: _74  and  _77
REMARK   37  A    between atoms: _77  and  _78
REMARK   38  A    between atoms: _80  and  _82
REMARK   39  A    between atoms: _82  and  _83
REMARK   40  A    between atoms: _82  and  _85
REMARK   41  A    between atoms: _85  and  _86
REMARK   42  A    between atoms: _89  and  _91
REMARK   43  A    between atoms: _91  and  _92
REMARK   44  A    between atoms: _91  and  _94
REMARK   45  A    between atoms: _94  and  _95
REMARK   46  A    between atoms: _100  and  _102
REMARK   47  A    between atoms: _102  and  _103
REMARK   48  A    between atoms: _102  and  _105
REMARK   49  A    between atoms: _108  and  _110
REMARK   50  A    between atoms: _110  and  _111
REMARK   51  A    between atoms: _110  and  _113
REMARK   52  A    between atoms: _113  and  _114
REMARK   53  A    between atoms: _114  and  _115
REMARK   54  A    between atoms: _115  and  _116
REMARK   55  A    between atoms: _125  and  _127
REMARK   56  A    between atoms: _127  and  _128
REMARK   57  A    between atoms: _127  and  _130
REMARK   58  A    between atoms: _130  and  _131
REMARK   59  A    between atoms: _133  and  _135
REMARK   60  A    between atoms: _135  and  _136
REMARK   61  A    between atoms: _135  and  _138
REMARK   62  A    between atoms: _138  and  _139
REMARK   63  A    between atoms: _141  and  _143
REMARK   64  A    between atoms: _143  and  _144
REMARK   65  A    between atoms: _143  and  _146
REMARK   66  A    between atoms: _146  and  _147
REMARK   67  A    between atoms: _147  and  _148
REMARK   68  A    between atoms: _151  and  _153
REMARK   69  A    between atoms: _153  and  _154
REMARK   70  A    between atoms: _153  and  _156
REMARK   71  A    between atoms: _156  and  _157
REMARK   72  A    between atoms: _160  and  _162
REMARK   73  A    between atoms: _162  and  _163
REMARK   74  A    between atoms: _165  and  _167
REMARK   75  A    between atoms: _167  and  _168
REMARK   76  A    between atoms: _167  and  _170
REMARK   77  A    between atoms: _170  and  _171
REMARK   78  A    between atoms: _174  and  _176
REMARK   79  A    between atoms: _185  and  _188
REMARK   80  A    between atoms: _188  and  _189
REMARK   81  A    between atoms: _196  and  _197
REMARK   82  A    between atoms: _203  and  _205
REMARK   83  A    between atoms: _205  and  _206
REMARK   84  A    between atoms: _205  and  _208
REMARK   85  A    between atoms: _208  and  _209
REMARK   86  A    between atoms: _214  and  _215
REMARK   87  A    between atoms: _217  and  _219
REMARK   88  A    between atoms: _219  and  _220
REMARK   89  A    between atoms: _219  and  _222
REMARK   90  A    between atoms: _222  and  _223
REMARK   91  A    between atoms: _223  and  _224
REMARK   92  A    between atoms: _223  and  _225
REMARK   93  A    between atoms: _224  and  CA_258
REMARK   94  A    between atoms: _228  and  _230
REMARK   95  A    between atoms: _230  and  _231
REMARK   96  A    between atoms: _230  and  _233
REMARK   97  A    between atoms: _233  and  _234
REMARK   98  A    between atoms: _237  and  _239
REMARK   99  A    between atoms: _239  and  _240
REMARK  100  A    between atoms: _243  and  _245
REMARK  101  A    between atoms: _245  and  _246
REMARK  102  A    between atoms: _245  and  _248
REMARK  103  A    between atoms: _248  and  _249
REMARK  104  A    between atoms: _252  and  _254
REMARK  105  A    between atoms: _254  and  _255
REMARK                            x       y       z     vdW  Elec       q    Type
REMARK                         _______ _______ _______ _____ _____    ______ ____
ROOT
ATOM      1  CA  VAL A   1      26.936  30.690  33.470  0.00  0.00    +0.133 C 
ENDROOT
BRANCH   1   2
ATOM      2  CB  VAL A   1      26.249  29.546  32.671  0.00  0.00    +0.023 C 
ATOM      3  CG2 VAL A   1      26.036  28.311  33.571  0.00  0.00    +0.002 C 
ATOM      4  CG1 VAL A   1      24.910  30.025  32.114  0.00  0.00    +0.002 C 
ENDBRANCH   1   2
BRANCH   1   5
ATOM      5  N   VAL A   1      27.055  31.887  32.685  0.00  0.00    -0.239 NA
ATOM      6  H   VAL A   1      27.807  31.941  31.968  0.00  0.00    +0.142 HD
ENDBRANCH   1   5
BRANCH   1   7
ATOM      7  C   VAL A   1      28.371  30.358  33.837  0.00  0.00    +0.224 C 
ATOM      8  O   VAL A   1      29.232  30.222  32.951  0.00  0.00    -0.287 OA
ENDBRANCH   1   7
TORSDOF 3
REMARK  Name = ../refined-set-2016/2boj/2boj_pocket.pdb
REMARK  105 active torsions:
REMARK  status: ('A' for Active; 'I' for Inactive)
REMARK    1  A    between atoms: _1  and  _3
REMARK    2  A    between atoms: _3  and  _4
REMARK    3  A    between atoms: _7  and  _9
REMARK    4  A    between atoms: _9  and  _10
REMARK    5  A    between atoms: _9  and  _12
REMARK    6  A    between atoms: _10  and  _11
REMARK    7  A    between atoms: _10  and  _18
REMARK    8  A    between atoms: _11  and  CA_258
REMARK    9  A    between atoms: _12  and  _13
REMARK   10  A    between atoms: _18  and  _20
REMARK   11  A    between atoms: _20  and  _21
REMARK   12  A    between atoms: _20  and  _23
REMARK   13  A    between atoms: _23  and  _24
REMARK   14  A    between atoms: _26  and  _28
REMARK   15  A    between atoms: _28  and  _29
REMARK   16  A    between atoms: _28  and  _31
REMARK   17  A    between atoms: _31  and  _32
REMARK   18  A    between atoms: _34  and  _36
REMARK   19  A    between atoms: _36  and  _37
REMARK   20  A    between atoms: _39  and  _41
REMARK   21  A    between atoms: _41  and  _42
REMARK   22  A    between atoms: _41  and  _44
REMARK   23  A    between atoms: _44  and  _45
REMARK   24  A    between atoms: _48  and  _50
REMARK   25  A    between atoms: _50  and  _51
REMARK   26  A    between atoms: _50  and  _53
REMARK   27  A    between atoms: _53  and  _54
REMARK   28  A    between atoms: _54  and  _55
REMARK   29  A    between atoms: _60  and  _62
REMARK   30  A    between atoms: _62  and  _63
REMARK   31  A    between atoms: _62  and  _65
REMARK   32  A    between atoms: _65  and  _66
REMARK   33  A    between atoms: _66  and  _67
REMARK   34  A    between atoms: _72  and  _74
REMARK   35  A    between atoms: _74  and  _75
REMARK   36  A    between atoms: _74  and  _77
REMARK   37  A    between atoms: _77  and  _78
REMARK   38  A    between atoms: _80  and  _82
REMARK   39  A    between atoms: _82  and  _83
REMARK   40  A    between atoms: _82  and  _85
REMARK   41  A    between atoms: _85  and  _86
REMARK   42  A    between atoms: _89  and  _91
REMARK   43  A    between atoms: _91  and  _92
REMARK   44  A    between atoms: _91  and  _94
REMARK   45  A    between atoms: _94  and  _95
REMARK   46  A    between atoms: _100  and  _102
REMARK   47  A    between atoms: _102  and  _103
REMARK   48  A    between atoms: _102  and  _105
REMARK   49  A    between atoms: _108  and  _110
REMARK   50  A    between atoms: _110  and  _111
REMARK   51  A    between atoms: _110  and  _113
REMARK   52  A    between atoms: _113  and  _114
REMARK   53  A    between atoms: _114  and  _115
REMARK   54  A    between atoms: _115  and  _116
REMARK   55  A    between atoms: _125  and  _127
REMARK   56  A    between atoms: _127  and  _128
REMARK   57  A    between atoms: _127  and  _130
REMARK   58  A    between atoms: _130  and  _131
REMARK   59  A    between atoms: _133  and  _135
REMARK   60  A    between atoms: _135  and  _136
REMARK   61  A    between atoms: _135  and  _138
REMARK   62  A    between atoms: _138  and  _139
REMARK   63  A    between atoms: _141  and  _143
REMARK   64  A    between atoms: _143  and  _144
REMARK   65  A    between atoms: _143  and  _146
REMARK   66  A    between atoms: _146  and  _147
REMARK   67  A    between atoms: _147  and  _148
REMARK   68  A    between atoms: _151  and  _153
REMARK   69  A    between atoms: _153  and  _154
REMARK   70  A    between atoms: _153  and  _156
REMARK   71  A    between atoms: _156  and  _157
REMARK   72  A    between atoms: _160  and  _162
REMARK   73  A    between atoms: _162  and  _163
REMARK   74  A    between atoms: _165  and  _167
REMARK   75  A    between atoms: _167  and  _168
REMARK   76  A    between atoms: _167  and  _170
REMARK   77  A    between atoms: _170  and  _171
REMARK   78  A    between atoms: _174  and  _176
REMARK   79  A    between atoms: _185  and  _188
REMARK   80  A    between atoms: _188  and  _189
REMARK   81  A    between atoms: _196  and  _197
REMARK   82  A    between atoms: _203  and  _205
REMARK   83  A    between atoms: _205  and  _206
REMARK   84  A    between atoms: _205  and  _208
REMARK   85  A    between atoms: _208  and  _209
REMARK   86  A    between atoms: _214  and  _215
REMARK   87  A    between atoms: _217  and  _219
REMARK   88  A    between atoms: _219  and  _220
REMARK   89  A    between atoms: _219  and  _222
REMARK   90  A    between atoms: _222  and  _223
REMARK   91  A    between atoms: _223  and  _224
REMARK   92  A    between atoms: _223  and  _225
REMARK   93  A    between atoms: _224  and  CA_258
REMARK   94  A    between atoms: _228  and  _230
REMARK   95  A    between atoms: _230  and  _231
REMARK   96  A    between atoms: _230  and  _233
REMARK   97  A    between atoms: _233  and  _234
REMARK   98  A    between atoms: _237  and  _239
REMARK   99  A    between atoms: _239  and  _240
REMARK  100  A    between atoms: _243  and  _245
REMARK  101  A    between atoms: _245  and  _246
REMARK  102  A    between atoms: _245  and  _248
REMARK  103  A    between atoms: _248  and  _249
REMARK  104  A    between atoms: _252  and  _254
REMARK  105  A    between atoms: _254  and  _255
REMARK                            x       y       z     vdW  Elec       q    Type
REMARK                         _______ _______ _______ _____ _____    ______ ____
ROOT
ATOM      1  NE  ARG A   1      31.066  28.394  29.885  0.00  0.00    -0.265 N 
ATOM      2  CZ  ARG A   1      29.914  28.033  30.456  0.00  0.00    +0.342 C 
ATOM      3  NH2 ARG A   1      29.865  27.774  31.759  0.00  0.00    -0.292 N 
ATOM      4 HH21 ARG A   1      30.726  27.852  32.337  0.00  0.00    +0.255 HD
ATOM      5 HH22 ARG A   1      28.966  27.493  32.200  0.00  0.00    +0.255 HD
ATOM      6  NH1 ARG A   1      28.805  27.943  29.720  0.00  0.00    -0.292 N 
ATOM      7 HH11 ARG A   1      27.908  27.662  30.164  0.00  0.00    +0.255 HD
ATOM      8 HH12 ARG A   1      28.838  28.154  28.702  0.00  0.00    +0.255 HD
ATOM      9  HE  ARG A   1      31.060  28.571  28.860  0.00  0.00    +0.259 HD
ENDROOT
BRANCH   1  10
ATOM     10  CD  ARG A   1      32.339  28.559  30.595  0.00  0.00    +0.174 C 
BRANCH  10  11
ATOM     11  CG  ARG A   1      32.641  30.054  30.831  0.00  0.00    +0.045 C 
BRANCH  11  12
ATOM     12  CB  ARG A   1      31.438  30.888  30.368  0.00  0.00    +0.029 C 
BRANCH  12  13
ATOM     13  CA  ARG A   1      31.331  32.330  30.841  0.00  0.00    +0.133 C 
BRANCH  13  14
ATOM     14  N   ARG A   1      31.199  32.406  32.298  0.00  0.00    -0.239 NA
ATOM     15  H   ARG A   1      30.670  31.664  32.798  0.00  0.00    +0.142 HD
ENDBRANCH  13  14
BRANCH  13  16
ATOM     16  C   ARG A   1      30.094  32.925  30.188  0.00  0.00    +0.224 C 
ATOM     17  O   ARG A   1      28.990  32.489  30.487  0.00  0.00    -0.287 OA
ENDBRANCH  13  16
ENDBRANCH  12  13
ENDBRANCH  11  12
ENDBRANCH  10  11
ENDBRANCH   1  10
TORSDOF 6
REMARK  Name = ../refined-set-2016/2boj/2boj_pocket.pdb
REMARK  105 active torsions:
REMARK  status: ('A' for Active; 'I' for Inactive)
REMARK    1  A    between atoms: _1  and  _3
REMARK    2  A    between atoms: _3  and  _4
REMARK    3  A    between atoms: _7  and  _9
REMARK    4  A    between atoms: _9  and  _10
REMARK    5  A    between atoms: _9  and  _12
REMARK    6  A    between atoms: _10  and  _11
REMARK    7  A    between atoms: _10  and  _18
REMARK    8  A    between atoms: _11  and  CA_258
REMARK    9  A    between atoms: _12  and  _13
REMARK   10  A    between atoms: _18  and  _20
REMARK   11  A    between atoms: _20  and  _21
REMARK   12  A    between atoms: _20  and  _23
REMARK   13  A    between atoms: _23  and  _24
REMARK   14  A    between atoms: _26  and  _28
REMARK   15  A    between atoms: _28  and  _29
REMARK   16  A    between atoms: _28  and  _31
REMARK   17  A    between atoms: _31  and  _32
REMARK   18  A    between atoms: _34  and  _36
REMARK   19  A    between atoms: _36  and  _37
REMARK   20  A    between atoms: _39  and  _41
REMARK   21  A    between atoms: _41  and  _42
REMARK   22  A    between atoms: _41  and  _44
REMARK   23  A    between atoms: _44  and  _45
REMARK   24  A    between atoms: _48  and  _50
REMARK   25  A    between atoms: _50  and  _51
REMARK   26  A    between atoms: _50  and  _53
REMARK   27  A    between atoms: _53  and  _54
REMARK   28  A    between atoms: _54  and  _55
REMARK   29  A    between atoms: _60  and  _62
REMARK   30  A    between atoms: _62  and  _63
REMARK   31  A    between atoms: _62  and  _65
REMARK   32  A    between atoms: _65  and  _66
REMARK   33  A    between atoms: _66  and  _67
REMARK   34  A    between atoms: _72  and  _74
REMARK   35  A    between atoms: _74  and  _75
REMARK   36  A    between atoms: _74  and  _77
REMARK   37  A    between atoms: _77  and  _78
REMARK   38  A    between atoms: _80  and  _82
REMARK   39  A    between atoms: _82  and  _83
REMARK   40  A    between atoms: _82  and  _85
REMARK   41  A    between atoms: _85  and  _86
REMARK   42  A    between atoms: _89  and  _91
REMARK   43  A    between atoms: _91  and  _92
REMARK   44  A    between atoms: _91  and  _94
REMARK   45  A    between atoms: _94  and  _95
REMARK   46  A    between atoms: _100  and  _102
REMARK   47  A    between atoms: _102  and  _103
REMARK   48  A    between atoms: _102  and  _105
REMARK   49  A    between atoms: _108  and  _110
REMARK   50  A    between atoms: _110  and  _111
REMARK   51  A    between atoms: _110  and  _113
REMARK   52  A    between atoms: _113  and  _114
REMARK   53  A    between atoms: _114  and  _115
REMARK   54  A    between atoms: _115  and  _116
REMARK   55  A    between atoms: _125  and  _127
REMARK   56  A    between atoms: _127  and  _128
REMARK   57  A    between atoms: _127  and  _130
REMARK   58  A    between atoms: _130  and  _131
REMARK   59  A    between atoms: _133  and  _135
REMARK   60  A    between atoms: _135  and  _136
REMARK   61  A    between atoms: _135  and  _138
REMARK   62  A    between atoms: _138  and  _139
REMARK   63  A    between atoms: _141  and  _143
REMARK   64  A    between atoms: _143  and  _144
REMARK   65  A    between atoms: _143  and  _146
REMARK   66  A    between atoms: _146  and  _147
REMARK   67  A    between atoms: _147  and  _148
REMARK   68  A    between atoms: _151  and  _153
REMARK   69  A    between atoms: _153  and  _154
REMARK   70  A    between atoms: _153  and  _156
REMARK   71  A    between atoms: _156  and  _157
REMARK   72  A    between atoms: _160  and  _162
REMARK   73  A    between atoms: _162  and  _163
REMARK   74  A    between atoms: _165  and  _167
REMARK   75  A    between atoms: _167  and  _168
REMARK   76  A    between atoms: _167  and  _170
REMARK   77  A    between atoms: _170  and  _171
REMARK   78  A    between atoms: _174  and  _176
REMARK   79  A    between atoms: _185  and  _188
REMARK   80  A    between atoms: _188  and  _189
REMARK   81  A    between atoms: _196  and  _197
REMARK   82  A    between atoms: _203  and  _205
REMARK   83  A    between atoms: _205  and  _206
REMARK   84  A    between atoms: _205  and  _208
REMARK   85  A    between atoms: _208  and  _209
REMARK   86  A    between atoms: _214  and  _215
REMARK   87  A    between atoms: _217  and  _219
REMARK   88  A    between atoms: _219  and  _220
REMARK   89  A    between atoms: _219  and  _222
REMARK   90  A    between atoms: _222  and  _223
REMARK   91  A    between atoms: _223  and  _224
REMARK   92  A    between atoms: _223  and  _225
REMARK   93  A    between atoms: _224  and  CA_258
REMARK   94  A    between atoms: _228  and  _230
REMARK   95  A    between atoms: _230  and  _231
REMARK   96  A    between atoms: _230  and  _233
REMARK   97  A    between atoms: _233  and  _234
REMARK   98  A    between atoms: _237  and  _239
REMARK   99  A    between atoms: _239  and  _240
REMARK  100  A    between atoms: _243  and  _245
REMARK  101  A    between atoms: _245  and  _246
REMARK  102  A    between atoms: _245  and  _248
REMARK  103  A    between atoms: _248  and  _249
REMARK  104  A    between atoms: _252  and  _254
REMARK  105  A    between atoms: _254  and  _255
REMARK                            x       y       z     vdW  Elec       q    Type
REMARK                         _______ _______ _______ _____ _____    ______ ____
ROOT
ATOM      1  CA  SER A   1      26.346  32.604  26.929  0.00  0.00    +0.163 C 
ENDROOT
BRANCH   1   2
ATOM      2  N   SER A   1      27.110  33.477  27.793  0.00  0.00    -0.237 NA
ATOM      3  H   SER A   1      26.621  34.072  28.492  0.00  0.00    +0.142 HD
ENDBRANCH   1   2
BRANCH   1   4
ATOM      4  C   SER A   1      26.220  33.246  25.559  0.00  0.00    +0.227 C 
ATOM      5  O   SER A   1      26.263  34.485  25.420  0.00  0.00    -0.287 OA
ENDBRANCH   1   4
BRANCH   1   6
ATOM      6  CB  SER A   1      24.961  32.354  27.516  0.00  0.00    +0.162 C 
BRANCH   6   7
ATOM      7  OG  SER A   1      25.076  31.707  28.757  0.00  0.00    -0.380 OA
ATOM      8  H   SER A   1      24.173  31.549  29.130  0.00  0.00    +0.211 HD
ENDBRANCH   6   7
ENDBRANCH   1   6
TORSDOF 4
REMARK  Name = ../refined-set-2016/2boj/2boj_pocket.pdb
REMARK  105 active torsions:
REMARK  status: ('A' for Active; 'I' for Inactive)
REMARK    1  A    between atoms: _1  and  _3
REMARK    2  A    between atoms: _3  and  _4
REMARK    3  A    between atoms: _7  and  _9
REMARK    4  A    between atoms: _9  and  _10
REMARK    5  A    between atoms: _9  and  _12
REMARK    6  A    between atoms: _10  and  _11
REMARK    7  A    between atoms: _10  and  _18
REMARK    8  A    between atoms: _11  and  CA_258
REMARK    9  A    between atoms: _12  and  _13
REMARK   10  A    between atoms: _18  and  _20
REMARK   11  A    between atoms: _20  and  _21
REMARK   12  A    between atoms: _20  and  _23
REMARK   13  A    between atoms: _23  and  _24
REMARK   14  A    between atoms: _26  and  _28
REMARK   15  A    between atoms: _28  and  _29
REMARK   16  A    between atoms: _28  and  _31
REMARK   17  A    between atoms: _31  and  _32
REMARK   18  A    between atoms: _34  and  _36
REMARK   19  A    between atoms: _36  and  _37
REMARK   20  A    between atoms: _39  and  _41
REMARK   21  A    between atoms: _41  and  _42
REMARK   22  A    between atoms: _41  and  _44
REMARK   23  A    between atoms: _44  and  _45
REMARK   24  A    between atoms: _48  and  _50
REMARK   25  A    between atoms: _50  and  _51
REMARK   26  A    between atoms: _50  and  _53
REMARK   27  A    between atoms: _53  and  _54
REMARK   28  A    between atoms: _54  and  _55
REMARK   29  A    between atoms: _60  and  _62
REMARK   30  A    between atoms: _62  and  _63
REMARK   31  A    between atoms: _62  and  _65
REMARK   32  A    between atoms: _65  and  _66
REMARK   33  A    between atoms: _66  and  _67
REMARK   34  A    between atoms: _72  and  _74
REMARK   35  A    between atoms: _74  and  _75
REMARK   36  A    between atoms: _74  and  _77
REMARK   37  A    between atoms: _77  and  _78
REMARK   38  A    between atoms: _80  and  _82
REMARK   39  A    between atoms: _82  and  _83
REMARK   40  A    between atoms: _82  and  _85
REMARK   41  A    between atoms: _85  and  _86
REMARK   42  A    between atoms: _89  and  _91
REMARK   43  A    between atoms: _91  and  _92
REMARK   44  A    between atoms: _91  and  _94
REMARK   45  A    between atoms: _94  and  _95
REMARK   46  A    between atoms: _100  and  _102
REMARK   47  A    between atoms: _102  and  _103
REMARK   48  A    between atoms: _102  and  _105
REMARK   49  A    between atoms: _108  and  _110
REMARK   50  A    between atoms: _110  and  _111
REMARK   51  A    between atoms: _110  and  _113
REMARK   52  A    between atoms: _113  and  _114
REMARK   53  A    between atoms: _114  and  _115
REMARK   54  A    between atoms: _115  and  _116
REMARK   55  A    between atoms: _125  and  _127
REMARK   56  A    between atoms: _127  and  _128
REMARK   57  A    between atoms: _127  and  _130
REMARK   58  A    between atoms: _130  and  _131
REMARK   59  A    between atoms: _133  and  _135
REMARK   60  A    between atoms: _135  and  _136
REMARK   61  A    between atoms: _135  and  _138
REMARK   62  A    between atoms: _138  and  _139
REMARK   63  A    between atoms: _141  and  _143
REMARK   64  A    between atoms: _143  and  _144
REMARK   65  A    between atoms: _143  and  _146
REMARK   66  A    between atoms: _146  and  _147
REMARK   67  A    between atoms: _147  and  _148
REMARK   68  A    between atoms: _151  and  _153
REMARK   69  A    between atoms: _153  and  _154
REMARK   70  A    between atoms: _153  and  _156
REMARK   71  A    between atoms: _156  and  _157
REMARK   72  A    between atoms: _160  and  _162
REMARK   73  A    between atoms: _162  and  _163
REMARK   74  A    between atoms: _165  and  _167
REMARK   75  A    between atoms: _167  and  _168
REMARK   76  A    between atoms: _167  and  _170
REMARK   77  A    between atoms: _170  and  _171
REMARK   78  A    between atoms: _174  and  _176
REMARK   79  A    between atoms: _185  and  _188
REMARK   80  A    between atoms: _188  and  _189
REMARK   81  A    between atoms: _196  and  _197
REMARK   82  A    between atoms: _203  and  _205
REMARK   83  A    between atoms: _205  and  _206
REMARK   84  A    between atoms: _205  and  _208
REMARK   85  A    between atoms: _208  and  _209
REMARK   86  A    between atoms: _214  and  _215
REMARK   87  A    between atoms: _217  and  _219
REMARK   88  A    between atoms: _219  and  _220
REMARK   89  A    between atoms: _219  and  _222
REMARK   90  A    between atoms: _222  and  _223
REMARK   91  A    between atoms: _223  and  _224
REMARK   92  A    between atoms: _223  and  _225
REMARK   93  A    between atoms: _224  and  CA_258
REMARK   94  A    between atoms: _228  and  _230
REMARK   95  A    between atoms: _230  and  _231
REMARK   96  A    between atoms: _230  and  _233
REMARK   97  A    between atoms: _233  and  _234
REMARK   98  A    between atoms: _237  and  _239
REMARK   99  A    between atoms: _239  and  _240
REMARK  100  A    between atoms: _243  and  _245
REMARK  101  A    between atoms: _245  and  _246
REMARK  102  A    between atoms: _245  and  _248
REMARK  103  A    between atoms: _248  and  _249
REMARK  104  A    between atoms: _252  and  _254
REMARK  105  A    between atoms: _254  and  _255
REMARK                            x       y       z     vdW  Elec       q    Type
REMARK                         _______ _______ _______ _____ _____    ______ ____
ROOT
ATOM      1  C   LEU A   1      12.774  23.074  28.228  0.00  0.00    +0.238 C 
ATOM      2  N   GLY A   2      13.382  23.079  29.415  0.00  0.00    -0.294 N 
ATOM      3  H   GLY A   2      13.198  23.861  30.075  0.00  0.00    +0.150 HD
ATOM      4  O   LEU A   1      13.069  22.291  27.324  0.00  0.00    -0.274 OA
ENDROOT
BRANCH   1   5
ATOM      5  CA  LEU A   1      11.696  24.140  28.006  0.00  0.00    +0.145 C 
BRANCH   5   6
ATOM      6  N   LEU A   1      11.127  24.002  26.677  0.00  0.00    -0.238 NA
ATOM      7  H   LEU A   1      10.442  23.242  26.492  0.00  0.00    +0.142 HD
ENDBRANCH   5   6
BRANCH   5   8
ATOM      8  CB  LEU A   1      10.600  24.027  29.057  0.00  0.00    +0.026 C 
BRANCH   8   9
ATOM      9  CG  LEU A   1       9.341  24.867  28.820  0.00  0.00    +0.002 C 
ATOM     10  CD2 LEU A   1       8.363  24.605  29.968  0.00  0.00    +0.000 C 
ATOM     11  CD1 LEU A   1       9.663  26.360  28.642  0.00  0.00    +0.000 C 
ENDBRANCH   8   9
ENDBRANCH   5   8
ENDBRANCH   1   5
BRANCH   2  12
ATOM     12  CA  GLY A   2      14.304  22.010  29.813  0.00  0.00    +0.205 C 
BRANCH  12  13
ATOM     13  C   GLY A   2      15.757  22.347  29.538  0.00  0.00    +0.385 C 
ATOM     14  OXT GLY A   2      16.642  21.788  30.208  0.00  0.00    -0.244 OA
ATOM     15  O   GLY A   2      16.080  23.162  28.655  0.00  0.00    -0.244 OA
ENDBRANCH  12  13
ENDBRANCH   2  12
TORSDOF 6
REMARK  Name = ../refined-set-2016/2boj/2boj_pocket.pdb
REMARK  105 active torsions:
REMARK  status: ('A' for Active; 'I' for Inactive)
REMARK    1  A    between atoms: _1  and  _3
REMARK    2  A    between atoms: _3  and  _4
REMARK    3  A    between atoms: _7  and  _9
REMARK    4  A    between atoms: _9  and  _10
REMARK    5  A    between atoms: _9  and  _12
REMARK    6  A    between atoms: _10  and  _11
REMARK    7  A    between atoms: _10  and  _18
REMARK    8  A    between atoms: _11  and  CA_258
REMARK    9  A    between atoms: _12  and  _13
REMARK   10  A    between atoms: _18  and  _20
REMARK   11  A    between atoms: _20  and  _21
REMARK   12  A    between atoms: _20  and  _23
REMARK   13  A    between atoms: _23  and  _24
REMARK   14  A    between atoms: _26  and  _28
REMARK   15  A    between atoms: _28  and  _29
REMARK   16  A    between atoms: _28  and  _31
REMARK   17  A    between atoms: _31  and  _32
REMARK   18  A    between atoms: _34  and  _36
REMARK   19  A    between atoms: _36  and  _37
REMARK   20  A    between atoms: _39  and  _41
REMARK   21  A    between atoms: _41  and  _42
REMARK   22  A    between atoms: _41  and  _44
REMARK   23  A    between atoms: _44  and  _45
REMARK   24  A    between atoms: _48  and  _50
REMARK   25  A    between atoms: _50  and  _51
REMARK   26  A    between atoms: _50  and  _53
REMARK   27  A    between atoms: _53  and  _54
REMARK   28  A    between atoms: _54  and  _55
REMARK   29  A    between atoms: _60  and  _62
REMARK   30  A    between atoms: _62  and  _63
REMARK   31  A    between atoms: _62  and  _65
REMARK   32  A    between atoms: _65  and  _66
REMARK   33  A    between atoms: _66  and  _67
REMARK   34  A    between atoms: _72  and  _74
REMARK   35  A    between atoms: _74  and  _75
REMARK   36  A    between atoms: _74  and  _77
REMARK   37  A    between atoms: _77  and  _78
REMARK   38  A    between atoms: _80  and  _82
REMARK   39  A    between atoms: _82  and  _83
REMARK   40  A    between atoms: _82  and  _85
REMARK   41  A    between atoms: _85  and  _86
REMARK   42  A    between atoms: _89  and  _91
REMARK   43  A    between atoms: _91  and  _92
REMARK   44  A    between atoms: _91  and  _94
REMARK   45  A    between atoms: _94  and  _95
REMARK   46  A    between atoms: _100  and  _102
REMARK   47  A    between atoms: _102  and  _103
REMARK   48  A    between atoms: _102  and  _105
REMARK   49  A    between atoms: _108  and  _110
REMARK   50  A    between atoms: _110  and  _111
REMARK   51  A    between atoms: _110  and  _113
REMARK   52  A    between atoms: _113  and  _114
REMARK   53  A    between atoms: _114  and  _115
REMARK   54  A    between atoms: _115  and  _116
REMARK   55  A    between atoms: _125  and  _127
REMARK   56  A    between atoms: _127  and  _128
REMARK   57  A    between atoms: _127  and  _130
REMARK   58  A    between atoms: _130  and  _131
REMARK   59  A    between atoms: _133  and  _135
REMARK   60  A    between atoms: _135  and  _136
REMARK   61  A    between atoms: _135  and  _138
REMARK   62  A    between atoms: _138  and  _139
REMARK   63  A    between atoms: _141  and  _143
REMARK   64  A    between atoms: _143  and  _144
REMARK   65  A    between atoms: _143  and  _146
REMARK   66  A    between atoms: _146  and  _147
REMARK   67  A    between atoms: _147  and  _148
REMARK   68  A    between atoms: _151  and  _153
REMARK   69  A    between atoms: _153  and  _154
REMARK   70  A    between atoms: _153  and  _156
REMARK   71  A    between atoms: _156  and  _157
REMARK   72  A    between atoms: _160  and  _162
REMARK   73  A    between atoms: _162  and  _163
REMARK   74  A    between atoms: _165  and  _167
REMARK   75  A    between atoms: _167  and  _168
REMARK   76  A    between atoms: _167  and  _170
REMARK   77  A    between atoms: _170  and  _171
REMARK   78  A    between atoms: _174  and  _176
REMARK   79  A    between atoms: _185  and  _188
REMARK   80  A    between atoms: _188  and  _189
REMARK   81  A    between atoms: _196  and  _197
REMARK   82  A    between atoms: _203  and  _205
REMARK   83  A    between atoms: _205  and  _206
REMARK   84  A    between atoms: _205  and  _208
REMARK   85  A    between atoms: _208  and  _209
REMARK   86  A    between atoms: _214  and  _215
REMARK   87  A    between atoms: _217  and  _219
REMARK   88  A    between atoms: _219  and  _220
REMARK   89  A    between atoms: _219  and  _222
REMARK   90  A    between atoms: _222  and  _223
REMARK   91  A    between atoms: _223  and  _224
REMARK   92  A    between atoms: _223  and  _225
REMARK   93  A    between atoms: _224  and  CA_258
REMARK   94  A    between atoms: _228  and  _230
REMARK   95  A    between atoms: _230  and  _231
REMARK   96  A    between atoms: _230  and  _233
REMARK   97  A    between atoms: _233  and  _234
REMARK   98  A    between atoms: _237  and  _239
REMARK   99  A    between atoms: _239  and  _240
REMARK  100  A    between atoms: _243  and  _245
REMARK  101  A    between atoms: _245  and  _246
REMARK  102  A    between atoms: _245  and  _248
REMARK  103  A    between atoms: _248  and  _249
REMARK  104  A    between atoms: _252  and  _254
REMARK  105  A    between atoms: _254  and  _255
REMARK                            x       y       z     vdW  Elec       q    Type
REMARK                         _______ _______ _______ _____ _____    ______ ____
ROOT
ATOM      1  O   HOH     1      21.123  17.050  30.196  0.00  0.00    +0.000 OA
ENDROOT
TORSDOF 0
REMARK  Name = ../refined-set-2016/2boj/2boj_pocket.pdb
REMARK  105 active torsions:
REMARK  status: ('A' for Active; 'I' for Inactive)
REMARK    1  A    between atoms: _1  and  _3
REMARK    2  A    between atoms: _3  and  _4
REMARK    3  A    between atoms: _7  and  _9
REMARK    4  A    between atoms: _9  and  _10
REMARK    5  A    between atoms: _9  and  _12
REMARK    6  A    between atoms: _10  and  _11
REMARK    7  A    between atoms: _10  and  _18
REMARK    8  A    between atoms: _11  and  CA_258
REMARK    9  A    between atoms: _12  and  _13
REMARK   10  A    between atoms: _18  and  _20
REMARK   11  A    between atoms: _20  and  _21
REMARK   12  A    between atoms: _20  and  _23
REMARK   13  A    between atoms: _23  and  _24
REMARK   14  A    between atoms: _26  and  _28
REMARK   15  A    between atoms: _28  and  _29
REMARK   16  A    between atoms: _28  and  _31
REMARK   17  A    between atoms: _31  and  _32
REMARK   18  A    between atoms: _34  and  _36
REMARK   19  A    between atoms: _36  and  _37
REMARK   20  A    between atoms: _39  and  _41
REMARK   21  A    between atoms: _41  and  _42
REMARK   22  A    between atoms: _41  and  _44
REMARK   23  A    between atoms: _44  and  _45
REMARK   24  A    between atoms: _48  and  _50
REMARK   25  A    between atoms: _50  and  _51
REMARK   26  A    between atoms: _50  and  _53
REMARK   27  A    between atoms: _53  and  _54
REMARK   28  A    between atoms: _54  and  _55
REMARK   29  A    between atoms: _60  and  _62
REMARK   30  A    between atoms: _62  and  _63
REMARK   31  A    between atoms: _62  and  _65
REMARK   32  A    between atoms: _65  and  _66
REMARK   33  A    between atoms: _66  and  _67
REMARK   34  A    between atoms: _72  and  _74
REMARK   35  A    between atoms: _74  and  _75
REMARK   36  A    between atoms: _74  and  _77
REMARK   37  A    between atoms: _77  and  _78
REMARK   38  A    between atoms: _80  and  _82
REMARK   39  A    between atoms: _82  and  _83
REMARK   40  A    between atoms: _82  and  _85
REMARK   41  A    between atoms: _85  and  _86
REMARK   42  A    between atoms: _89  and  _91
REMARK   43  A    between atoms: _91  and  _92
REMARK   44  A    between atoms: _91  and  _94
REMARK   45  A    between atoms: _94  and  _95
REMARK   46  A    between atoms: _100  and  _102
REMARK   47  A    between atoms: _102  and  _103
REMARK   48  A    between atoms: _102  and  _105
REMARK   49  A    between atoms: _108  and  _110
REMARK   50  A    between atoms: _110  and  _111
REMARK   51  A    between atoms: _110  and  _113
REMARK   52  A    between atoms: _113  and  _114
REMARK   53  A    between atoms: _114  and  _115
REMARK   54  A    between atoms: _115  and  _116
REMARK   55  A    between atoms: _125  and  _127
REMARK   56  A    between atoms: _127  and  _128
REMARK   57  A    between atoms: _127  and  _130
REMARK   58  A    between atoms: _130  and  _131
REMARK   59  A    between atoms: _133  and  _135
REMARK   60  A    between atoms: _135  and  _136
REMARK   61  A    between atoms: _135  and  _138
REMARK   62  A    between atoms: _138  and  _139
REMARK   63  A    between atoms: _141  and  _143
REMARK   64  A    between atoms: _143  and  _144
REMARK   65  A    between atoms: _143  and  _146
REMARK   66  A    between atoms: _146  and  _147
REMARK   67  A    between atoms: _147  and  _148
REMARK   68  A    between atoms: _151  and  _153
REMARK   69  A    between atoms: _153  and  _154
REMARK   70  A    between atoms: _153  and  _156
REMARK   71  A    between atoms: _156  and  _157
REMARK   72  A    between atoms: _160  and  _162
REMARK   73  A    between atoms: _162  and  _163
REMARK   74  A    between atoms: _165  and  _167
REMARK   75  A    between atoms: _167  and  _168
REMARK   76  A    between atoms: _167  and  _170
REMARK   77  A    between atoms: _170  and  _171
REMARK   78  A    between atoms: _174  and  _176
REMARK   79  A    between atoms: _185  and  _188
REMARK   80  A    between atoms: _188  and  _189
REMARK   81  A    between atoms: _196  and  _197
REMARK   82  A    between atoms: _203  and  _205
REMARK   83  A    between atoms: _205  and  _206
REMARK   84  A    between atoms: _205  and  _208
REMARK   85  A    between atoms: _208  and  _209
REMARK   86  A    between atoms: _214  and  _215
REMARK   87  A    between atoms: _217  and  _219
REMARK   88  A    between atoms: _219  and  _220
REMARK   89  A    between atoms: _219  and  _222
REMARK   90  A    between atoms: _222  and  _223
REMARK   91  A    between atoms: _223  and  _224
REMARK   92  A    between atoms: _223  and  _225
REMARK   93  A    between atoms: _224  and  CA_258
REMARK   94  A    between atoms: _228  and  _230
REMARK   95  A    between atoms: _230  and  _231
REMARK   96  A    between atoms: _230  and  _233
REMARK   97  A    between atoms: _233  and  _234
REMARK   98  A    between atoms: _237  and  _239
REMARK   99  A    between atoms: _239  and  _240
REMARK  100  A    between atoms: _243  and  _245
REMARK  101  A    between atoms: _245  and  _246
REMARK  102  A    between atoms: _245  and  _248
REMARK  103  A    between atoms: _248  and  _249
REMARK  104  A    between atoms: _252  and  _254
REMARK  105  A    between atoms: _254  and  _255
REMARK                            x       y       z     vdW  Elec       q    Type
REMARK                         _______ _______ _______ _____ _____    ______ ____
ROOT
ATOM      1  O   HOH     1      26.364  18.540  32.187  0.00  0.00    +0.000 OA
ENDROOT
TORSDOF 0
REMARK  Name = ../refined-set-2016/2boj/2boj_pocket.pdb
REMARK  105 active torsions:
REMARK  status: ('A' for Active; 'I' for Inactive)
REMARK    1  A    between atoms: _1  and  _3
REMARK    2  A    between atoms: _3  and  _4
REMARK    3  A    between atoms: _7  and  _9
REMARK    4  A    between atoms: _9  and  _10
REMARK    5  A    between atoms: _9  and  _12
REMARK    6  A    between atoms: _10  and  _11
REMARK    7  A    between atoms: _10  and  _18
REMARK    8  A    between atoms: _11  and  CA_258
REMARK    9  A    between atoms: _12  and  _13
REMARK   10  A    between atoms: _18  and  _20
REMARK   11  A    between atoms: _20  and  _21
REMARK   12  A    between atoms: _20  and  _23
REMARK   13  A    between atoms: _23  and  _24
REMARK   14  A    between atoms: _26  and  _28
REMARK   15  A    between atoms: _28  and  _29
REMARK   16  A    between atoms: _28  and  _31
REMARK   17  A    between atoms: _31  and  _32
REMARK   18  A    between atoms: _34  and  _36
REMARK   19  A    between atoms: _36  and  _37
REMARK   20  A    between atoms: _39  and  _41
REMARK   21  A    between atoms: _41  and  _42
REMARK   22  A    between atoms: _41  and  _44
REMARK   23  A    between atoms: _44  and  _45
REMARK   24  A    between atoms: _48  and  _50
REMARK   25  A    between atoms: _50  and  _51
REMARK   26  A    between atoms: _50  and  _53
REMARK   27  A    between atoms: _53  and  _54
REMARK   28  A    between atoms: _54  and  _55
REMARK   29  A    between atoms: _60  and  _62
REMARK   30  A    between atoms: _62  and  _63
REMARK   31  A    between atoms: _62  and  _65
REMARK   32  A    between atoms: _65  and  _66
REMARK   33  A    between atoms: _66  and  _67
REMARK   34  A    between atoms: _72  and  _74
REMARK   35  A    between atoms: _74  and  _75
REMARK   36  A    between atoms: _74  and  _77
REMARK   37  A    between atoms: _77  and  _78
REMARK   38  A    between atoms: _80  and  _82
REMARK   39  A    between atoms: _82  and  _83
REMARK   40  A    between atoms: _82  and  _85
REMARK   41  A    between atoms: _85  and  _86
REMARK   42  A    between atoms: _89  and  _91
REMARK   43  A    between atoms: _91  and  _92
REMARK   44  A    between atoms: _91  and  _94
REMARK   45  A    between atoms: _94  and  _95
REMARK   46  A    between atoms: _100  and  _102
REMARK   47  A    between atoms: _102  and  _103
REMARK   48  A    between atoms: _102  and  _105
REMARK   49  A    between atoms: _108  and  _110
REMARK   50  A    between atoms: _110  and  _111
REMARK   51  A    between atoms: _110  and  _113
REMARK   52  A    between atoms: _113  and  _114
REMARK   53  A    between atoms: _114  and  _115
REMARK   54  A    between atoms: _115  and  _116
REMARK   55  A    between atoms: _125  and  _127
REMARK   56  A    between atoms: _127  and  _128
REMARK   57  A    between atoms: _127  and  _130
REMARK   58  A    between atoms: _130  and  _131
REMARK   59  A    between atoms: _133  and  _135
REMARK   60  A    between atoms: _135  and  _136
REMARK   61  A    between atoms: _135  and  _138
REMARK   62  A    between atoms: _138  and  _139
REMARK   63  A    between atoms: _141  and  _143
REMARK   64  A    between atoms: _143  and  _144
REMARK   65  A    between atoms: _143  and  _146
REMARK   66  A    between atoms: _146  and  _147
REMARK   67  A    between atoms: _147  and  _148
REMARK   68  A    between atoms: _151  and  _153
REMARK   69  A    between atoms: _153  and  _154
REMARK   70  A    between atoms: _153  and  _156
REMARK   71  A    between atoms: _156  and  _157
REMARK   72  A    between atoms: _160  and  _162
REMARK   73  A    between atoms: _162  and  _163
REMARK   74  A    between atoms: _165  and  _167
REMARK   75  A    between atoms: _167  and  _168
REMARK   76  A    between atoms: _167  and  _170
REMARK   77  A    between atoms: _170  and  _171
REMARK   78  A    between atoms: _174  and  _176
REMARK   79  A    between atoms: _185  and  _188
REMARK   80  A    between atoms: _188  and  _189
REMARK   81  A    between atoms: _196  and  _197
REMARK   82  A    between atoms: _203  and  _205
REMARK   83  A    between atoms: _205  and  _206
REMARK   84  A    between atoms: _205  and  _208
REMARK   85  A    between atoms: _208  and  _209
REMARK   86  A    between atoms: _214  and  _215
REMARK   87  A    between atoms: _217  and  _219
REMARK   88  A    between atoms: _219  and  _220
REMARK   89  A    between atoms: _219  and  _222
REMARK   90  A    between atoms: _222  and  _223
REMARK   91  A    between atoms: _223  and  _224
REMARK   92  A    between atoms: _223  and  _225
REMARK   93  A    between atoms: _224  and  CA_258
REMARK   94  A    between atoms: _228  and  _230
REMARK   95  A    between atoms: _230  and  _231
REMARK   96  A    between atoms: _230  and  _233
REMARK   97  A    between atoms: _233  and  _234
REMARK   98  A    between atoms: _237  and  _239
REMARK   99  A    between atoms: _239  and  _240
REMARK  100  A    between atoms: _243  and  _245
REMARK  101  A    between atoms: _245  and  _246
REMARK  102  A    between atoms: _245  and  _248
REMARK  103  A    between atoms: _248  and  _249
REMARK  104  A    between atoms: _252  and  _254
REMARK  105  A    between atoms: _254  and  _255
REMARK                            x       y       z     vdW  Elec       q    Type
REMARK                         _______ _______ _______ _____ _____    ______ ____
ROOT
ATOM      1  O   HOH     1      19.182  17.735  34.801  0.00  0.00    +0.000 OA
ENDROOT
TORSDOF 0
REMARK  Name = ../refined-set-2016/2boj/2boj_pocket.pdb
REMARK  105 active torsions:
REMARK  status: ('A' for Active; 'I' for Inactive)
REMARK    1  A    between atoms: _1  and  _3
REMARK    2  A    between atoms: _3  and  _4
REMARK    3  A    between atoms: _7  and  _9
REMARK    4  A    between atoms: _9  and  _10
REMARK    5  A    between atoms: _9  and  _12
REMARK    6  A    between atoms: _10  and  _11
REMARK    7  A    between atoms: _10  and  _18
REMARK    8  A    between atoms: _11  and  CA_258
REMARK    9  A    between atoms: _12  and  _13
REMARK   10  A    between atoms: _18  and  _20
REMARK   11  A    between atoms: _20  and  _21
REMARK   12  A    between atoms: _20  and  _23
REMARK   13  A    between atoms: _23  and  _24
REMARK   14  A    between atoms: _26  and  _28
REMARK   15  A    between atoms: _28  and  _29
REMARK   16  A    between atoms: _28  and  _31
REMARK   17  A    between atoms: _31  and  _32
REMARK   18  A    between atoms: _34  and  _36
REMARK   19  A    between atoms: _36  and  _37
REMARK   20  A    between atoms: _39  and  _41
REMARK   21  A    between atoms: _41  and  _42
REMARK   22  A    between atoms: _41  and  _44
REMARK   23  A    between atoms: _44  and  _45
REMARK   24  A    between atoms: _48  and  _50
REMARK   25  A    between atoms: _50  and  _51
REMARK   26  A    between atoms: _50  and  _53
REMARK   27  A    between atoms: _53  and  _54
REMARK   28  A    between atoms: _54  and  _55
REMARK   29  A    between atoms: _60  and  _62
REMARK   30  A    between atoms: _62  and  _63
REMARK   31  A    between atoms: _62  and  _65
REMARK   32  A    between atoms: _65  and  _66
REMARK   33  A    between atoms: _66  and  _67
REMARK   34  A    between atoms: _72  and  _74
REMARK   35  A    between atoms: _74  and  _75
REMARK   36  A    between atoms: _74  and  _77
REMARK   37  A    between atoms: _77  and  _78
REMARK   38  A    between atoms: _80  and  _82
REMARK   39  A    between atoms: _82  and  _83
REMARK   40  A    between atoms: _82  and  _85
REMARK   41  A    between atoms: _85  and  _86
REMARK   42  A    between atoms: _89  and  _91
REMARK   43  A    between atoms: _91  and  _92
REMARK   44  A    between atoms: _91  and  _94
REMARK   45  A    between atoms: _94  and  _95
REMARK   46  A    between atoms: _100  and  _102
REMARK   47  A    between atoms: _102  and  _103
REMARK   48  A    between atoms: _102  and  _105
REMARK   49  A    between atoms: _108  and  _110
REMARK   50  A    between atoms: _110  and  _111
REMARK   51  A    between atoms: _110  and  _113
REMARK   52  A    between atoms: _113  and  _114
REMARK   53  A    between atoms: _114  and  _115
REMARK   54  A    between atoms: _115  and  _116
REMARK   55  A    between atoms: _125  and  _127
REMARK   56  A    between atoms: _127  and  _128
REMARK   57  A    between atoms: _127  and  _130
REMARK   58  A    between atoms: _130  and  _131
REMARK   59  A    between atoms: _133  and  _135
REMARK   60  A    between atoms: _135  and  _136
REMARK   61  A    between atoms: _135  and  _138
REMARK   62  A    between atoms: _138  and  _139
REMARK   63  A    between atoms: _141  and  _143
REMARK   64  A    between atoms: _143  and  _144
REMARK   65  A    between atoms: _143  and  _146
REMARK   66  A    between atoms: _146  and  _147
REMARK   67  A    between atoms: _147  and  _148
REMARK   68  A    between atoms: _151  and  _153
REMARK   69  A    between atoms: _153  and  _154
REMARK   70  A    between atoms: _153  and  _156
REMARK   71  A    between atoms: _156  and  _157
REMARK   72  A    between atoms: _160  and  _162
REMARK   73  A    between atoms: _162  and  _163
REMARK   74  A    between atoms: _165  and  _167
REMARK   75  A    between atoms: _167  and  _168
REMARK   76  A    between atoms: _167  and  _170
REMARK   77  A    between atoms: _170  and  _171
REMARK   78  A    between atoms: _174  and  _176
REMARK   79  A    between atoms: _185  and  _188
REMARK   80  A    between atoms: _188  and  _189
REMARK   81  A    between atoms: _196  and  _197
REMARK   82  A    between atoms: _203  and  _205
REMARK   83  A    between atoms: _205  and  _206
REMARK   84  A    between atoms: _205  and  _208
REMARK   85  A    between atoms: _208  and  _209
REMARK   86  A    between atoms: _214  and  _215
REMARK   87  A    between atoms: _217  and  _219
REMARK   88  A    between atoms: _219  and  _220
REMARK   89  A    between atoms: _219  and  _222
REMARK   90  A    between atoms: _222  and  _223
REMARK   91  A    between atoms: _223  and  _224
REMARK   92  A    between atoms: _223  and  _225
REMARK   93  A    between atoms: _224  and  CA_258
REMARK   94  A    between atoms: _228  and  _230
REMARK   95  A    between atoms: _230  and  _231
REMARK   96  A    between atoms: _230  and  _233
REMARK   97  A    between atoms: _233  and  _234
REMARK   98  A    between atoms: _237  and  _239
REMARK   99  A    between atoms: _239  and  _240
REMARK  100  A    between atoms: _243  and  _245
REMARK  101  A    between atoms: _245  and  _246
REMARK  102  A    between atoms: _245  and  _248
REMARK  103  A    between atoms: _248  and  _249
REMARK  104  A    between atoms: _252  and  _254
REMARK  105  A    between atoms: _254  and  _255
REMARK                            x       y       z     vdW  Elec       q    Type
REMARK                         _______ _______ _______ _____ _____    ______ ____
ROOT
ATOM      1  O   HOH     1      19.842  19.930  36.381  0.00  0.00    +0.000 OA
ENDROOT
TORSDOF 0
REMARK  Name = ../refined-set-2016/2boj/2boj_pocket.pdb
REMARK  105 active torsions:
REMARK  status: ('A' for Active; 'I' for Inactive)
REMARK    1  A    between atoms: _1  and  _3
REMARK    2  A    between atoms: _3  and  _4
REMARK    3  A    between atoms: _7  and  _9
REMARK    4  A    between atoms: _9  and  _10
REMARK    5  A    between atoms: _9  and  _12
REMARK    6  A    between atoms: _10  and  _11
REMARK    7  A    between atoms: _10  and  _18
REMARK    8  A    between atoms: _11  and  CA_258
REMARK    9  A    between atoms: _12  and  _13
REMARK   10  A    between atoms: _18  and  _20
REMARK   11  A    between atoms: _20  and  _21
REMARK   12  A    between atoms: _20  and  _23
REMARK   13  A    between atoms: _23  and  _24
REMARK   14  A    between atoms: _26  and  _28
REMARK   15  A    between atoms: _28  and  _29
REMARK   16  A    between atoms: _28  and  _31
REMARK   17  A    between atoms: _31  and  _32
REMARK   18  A    between atoms: _34  and  _36
REMARK   19  A    between atoms: _36  and  _37
REMARK   20  A    between atoms: _39  and  _41
REMARK   21  A    between atoms: _41  and  _42
REMARK   22  A    between atoms: _41  and  _44
REMARK   23  A    between atoms: _44  and  _45
REMARK   24  A    between atoms: _48  and  _50
REMARK   25  A    between atoms: _50  and  _51
REMARK   26  A    between atoms: _50  and  _53
REMARK   27  A    between atoms: _53  and  _54
REMARK   28  A    between atoms: _54  and  _55
REMARK   29  A    between atoms: _60  and  _62
REMARK   30  A    between atoms: _62  and  _63
REMARK   31  A    between atoms: _62  and  _65
REMARK   32  A    between atoms: _65  and  _66
REMARK   33  A    between atoms: _66  and  _67
REMARK   34  A    between atoms: _72  and  _74
REMARK   35  A    between atoms: _74  and  _75
REMARK   36  A    between atoms: _74  and  _77
REMARK   37  A    between atoms: _77  and  _78
REMARK   38  A    between atoms: _80  and  _82
REMARK   39  A    between atoms: _82  and  _83
REMARK   40  A    between atoms: _82  and  _85
REMARK   41  A    between atoms: _85  and  _86
REMARK   42  A    between atoms: _89  and  _91
REMARK   43  A    between atoms: _91  and  _92
REMARK   44  A    between atoms: _91  and  _94
REMARK   45  A    between atoms: _94  and  _95
REMARK   46  A    between atoms: _100  and  _102
REMARK   47  A    between atoms: _102  and  _103
REMARK   48  A    between atoms: _102  and  _105
REMARK   49  A    between atoms: _108  and  _110
REMARK   50  A    between atoms: _110  and  _111
REMARK   51  A    between atoms: _110  and  _113
REMARK   52  A    between atoms: _113  and  _114
REMARK   53  A    between atoms: _114  and  _115
REMARK   54  A    between atoms: _115  and  _116
REMARK   55  A    between atoms: _125  and  _127
REMARK   56  A    between atoms: _127  and  _128
REMARK   57  A    between atoms: _127  and  _130
REMARK   58  A    between atoms: _130  and  _131
REMARK   59  A    between atoms: _133  and  _135
REMARK   60  A    between atoms: _135  and  _136
REMARK   61  A    between atoms: _135  and  _138
REMARK   62  A    between atoms: _138  and  _139
REMARK   63  A    between atoms: _141  and  _143
REMARK   64  A    between atoms: _143  and  _144
REMARK   65  A    between atoms: _143  and  _146
REMARK   66  A    between atoms: _146  and  _147
REMARK   67  A    between atoms: _147  and  _148
REMARK   68  A    between atoms: _151  and  _153
REMARK   69  A    between atoms: _153  and  _154
REMARK   70  A    between atoms: _153  and  _156
REMARK   71  A    between atoms: _156  and  _157
REMARK   72  A    between atoms: _160  and  _162
REMARK   73  A    between atoms: _162  and  _163
REMARK   74  A    between atoms: _165  and  _167
REMARK   75  A    between atoms: _167  and  _168
REMARK   76  A    between atoms: _167  and  _170
REMARK   77  A    between atoms: _170  and  _171
REMARK   78  A    between atoms: _174  and  _176
REMARK   79  A    between atoms: _185  and  _188
REMARK   80  A    between atoms: _188  and  _189
REMARK   81  A    between atoms: _196  and  _197
REMARK   82  A    between atoms: _203  and  _205
REMARK   83  A    between atoms: _205  and  _206
REMARK   84  A    between atoms: _205  and  _208
REMARK   85  A    between atoms: _208  and  _209
REMARK   86  A    between atoms: _214  and  _215
REMARK   87  A    between atoms: _217  and  _219
REMARK   88  A    between atoms: _219  and  _220
REMARK   89  A    between atoms: _219  and  _222
REMARK   90  A    between atoms: _222  and  _223
REMARK   91  A    between atoms: _223  and  _224
REMARK   92  A    between atoms: _223  and  _225
REMARK   93  A    between atoms: _224  and  CA_258
REMARK   94  A    between atoms: _228  and  _230
REMARK   95  A    between atoms: _230  and  _231
REMARK   96  A    between atoms: _230  and  _233
REMARK   97  A    between atoms: _233  and  _234
REMARK   98  A    between atoms: _237  and  _239
REMARK   99  A    between atoms: _239  and  _240
REMARK  100  A    between atoms: _243  and  _245
REMARK  101  A    between atoms: _245  and  _246
REMARK  102  A    between atoms: _245  and  _248
REMARK  103  A    between atoms: _248  and  _249
REMARK  104  A    between atoms: _252  and  _254
REMARK  105  A    between atoms: _254  and  _255
REMARK                            x       y       z     vdW  Elec       q    Type
REMARK                         _______ _______ _______ _____ _____    ______ ____
ROOT
ATOM      1  O   HOH     1      24.891  21.617  37.028  0.00  0.00    +0.000 OA
ENDROOT
TORSDOF 0
REMARK  Name = ../refined-set-2016/2boj/2boj_pocket.pdb
REMARK  105 active torsions:
REMARK  status: ('A' for Active; 'I' for Inactive)
REMARK    1  A    between atoms: _1  and  _3
REMARK    2  A    between atoms: _3  and  _4
REMARK    3  A    between atoms: _7  and  _9
REMARK    4  A    between atoms: _9  and  _10
REMARK    5  A    between atoms: _9  and  _12
REMARK    6  A    between atoms: _10  and  _11
REMARK    7  A    between atoms: _10  and  _18
REMARK    8  A    between atoms: _11  and  CA_258
REMARK    9  A    between atoms: _12  and  _13
REMARK   10  A    between atoms: _18  and  _20
REMARK   11  A    between atoms: _20  and  _21
REMARK   12  A    between atoms: _20  and  _23
REMARK   13  A    between atoms: _23  and  _24
REMARK   14  A    between atoms: _26  and  _28
REMARK   15  A    between atoms: _28  and  _29
REMARK   16  A    between atoms: _28  and  _31
REMARK   17  A    between atoms: _31  and  _32
REMARK   18  A    between atoms: _34  and  _36
REMARK   19  A    between atoms: _36  and  _37
REMARK   20  A    between atoms: _39  and  _41
REMARK   21  A    between atoms: _41  and  _42
REMARK   22  A    between atoms: _41  and  _44
REMARK   23  A    between atoms: _44  and  _45
REMARK   24  A    between atoms: _48  and  _50
REMARK   25  A    between atoms: _50  and  _51
REMARK   26  A    between atoms: _50  and  _53
REMARK   27  A    between atoms: _53  and  _54
REMARK   28  A    between atoms: _54  and  _55
REMARK   29  A    between atoms: _60  and  _62
REMARK   30  A    between atoms: _62  and  _63
REMARK   31  A    between atoms: _62  and  _65
REMARK   32  A    between atoms: _65  and  _66
REMARK   33  A    between atoms: _66  and  _67
REMARK   34  A    between atoms: _72  and  _74
REMARK   35  A    between atoms: _74  and  _75
REMARK   36  A    between atoms: _74  and  _77
REMARK   37  A    between atoms: _77  and  _78
REMARK   38  A    between atoms: _80  and  _82
REMARK   39  A    between atoms: _82  and  _83
REMARK   40  A    between atoms: _82  and  _85
REMARK   41  A    between atoms: _85  and  _86
REMARK   42  A    between atoms: _89  and  _91
REMARK   43  A    between atoms: _91  and  _92
REMARK   44  A    between atoms: _91  and  _94
REMARK   45  A    between atoms: _94  and  _95
REMARK   46  A    between atoms: _100  and  _102
REMARK   47  A    between atoms: _102  and  _103
REMARK   48  A    between atoms: _102  and  _105
REMARK   49  A    between atoms: _108  and  _110
REMARK   50  A    between atoms: _110  and  _111
REMARK   51  A    between atoms: _110  and  _113
REMARK   52  A    between atoms: _113  and  _114
REMARK   53  A    between atoms: _114  and  _115
REMARK   54  A    between atoms: _115  and  _116
REMARK   55  A    between atoms: _125  and  _127
REMARK   56  A    between atoms: _127  and  _128
REMARK   57  A    between atoms: _127  and  _130
REMARK   58  A    between atoms: _130  and  _131
REMARK   59  A    between atoms: _133  and  _135
REMARK   60  A    between atoms: _135  and  _136
REMARK   61  A    between atoms: _135  and  _138
REMARK   62  A    between atoms: _138  and  _139
REMARK   63  A    between atoms: _141  and  _143
REMARK   64  A    between atoms: _143  and  _144
REMARK   65  A    between atoms: _143  and  _146
REMARK   66  A    between atoms: _146  and  _147
REMARK   67  A    between atoms: _147  and  _148
REMARK   68  A    between atoms: _151  and  _153
REMARK   69  A    between atoms: _153  and  _154
REMARK   70  A    between atoms: _153  and  _156
REMARK   71  A    between atoms: _156  and  _157
REMARK   72  A    between atoms: _160  and  _162
REMARK   73  A    between atoms: _162  and  _163
REMARK   74  A    between atoms: _165  and  _167
REMARK   75  A    between atoms: _167  and  _168
REMARK   76  A    between atoms: _167  and  _170
REMARK   77  A    between atoms: _170  and  _171
REMARK   78  A    between atoms: _174  and  _176
REMARK   79  A    between atoms: _185  and  _188
REMARK   80  A    between atoms: _188  and  _189
REMARK   81  A    between atoms: _196  and  _197
REMARK   82  A    between atoms: _203  and  _205
REMARK   83  A    between atoms: _205  and  _206
REMARK   84  A    between atoms: _205  and  _208
REMARK   85  A    between atoms: _208  and  _209
REMARK   86  A    between atoms: _214  and  _215
REMARK   87  A    between atoms: _217  and  _219
REMARK   88  A    between atoms: _219  and  _220
REMARK   89  A    between atoms: _219  and  _222
REMARK   90  A    between atoms: _222  and  _223
REMARK   91  A    between atoms: _223  and  _224
REMARK   92  A    between atoms: _223  and  _225
REMARK   93  A    between atoms: _224  and  CA_258
REMARK   94  A    between atoms: _228  and  _230
REMARK   95  A    between atoms: _230  and  _231
REMARK   96  A    between atoms: _230  and  _233
REMARK   97  A    between atoms: _233  and  _234
REMARK   98  A    between atoms: _237  and  _239
REMARK   99  A    between atoms: _239  and  _240
REMARK  100  A    between atoms: _243  and  _245
REMARK  101  A    between atoms: _245  and  _246
REMARK  102  A    between atoms: _245  and  _248
REMARK  103  A    between atoms: _248  and  _249
REMARK  104  A    between atoms: _252  and  _254
REMARK  105  A    between atoms: _254  and  _255
REMARK                            x       y       z     vdW  Elec       q    Type
REMARK                         _______ _______ _______ _____ _____    ______ ____
ROOT
ATOM      1  O   HOH     1      21.723  18.196  32.400  0.00  0.00    +0.000 OA
ENDROOT
TORSDOF 0
REMARK  Name = ../refined-set-2016/2boj/2boj_pocket.pdb
REMARK  105 active torsions:
REMARK  status: ('A' for Active; 'I' for Inactive)
REMARK    1  A    between atoms: _1  and  _3
REMARK    2  A    between atoms: _3  and  _4
REMARK    3  A    between atoms: _7  and  _9
REMARK    4  A    between atoms: _9  and  _10
REMARK    5  A    between atoms: _9  and  _12
REMARK    6  A    between atoms: _10  and  _11
REMARK    7  A    between atoms: _10  and  _18
REMARK    8  A    between atoms: _11  and  CA_258
REMARK    9  A    between atoms: _12  and  _13
REMARK   10  A    between atoms: _18  and  _20
REMARK   11  A    between atoms: _20  and  _21
REMARK   12  A    between atoms: _20  and  _23
REMARK   13  A    between atoms: _23  and  _24
REMARK   14  A    between atoms: _26  and  _28
REMARK   15  A    between atoms: _28  and  _29
REMARK   16  A    between atoms: _28  and  _31
REMARK   17  A    between atoms: _31  and  _32
REMARK   18  A    between atoms: _34  and  _36
REMARK   19  A    between atoms: _36  and  _37
REMARK   20  A    between atoms: _39  and  _41
REMARK   21  A    between atoms: _41  and  _42
REMARK   22  A    between atoms: _41  and  _44
REMARK   23  A    between atoms: _44  and  _45
REMARK   24  A    between atoms: _48  and  _50
REMARK   25  A    between atoms: _50  and  _51
REMARK   26  A    between atoms: _50  and  _53
REMARK   27  A    between atoms: _53  and  _54
REMARK   28  A    between atoms: _54  and  _55
REMARK   29  A    between atoms: _60  and  _62
REMARK   30  A    between atoms: _62  and  _63
REMARK   31  A    between atoms: _62  and  _65
REMARK   32  A    between atoms: _65  and  _66
REMARK   33  A    between atoms: _66  and  _67
REMARK   34  A    between atoms: _72  and  _74
REMARK   35  A    between atoms: _74  and  _75
REMARK   36  A    between atoms: _74  and  _77
REMARK   37  A    between atoms: _77  and  _78
REMARK   38  A    between atoms: _80  and  _82
REMARK   39  A    between atoms: _82  and  _83
REMARK   40  A    between atoms: _82  and  _85
REMARK   41  A    between atoms: _85  and  _86
REMARK   42  A    between atoms: _89  and  _91
REMARK   43  A    between atoms: _91  and  _92
REMARK   44  A    between atoms: _91  and  _94
REMARK   45  A    between atoms: _94  and  _95
REMARK   46  A    between atoms: _100  and  _102
REMARK   47  A    between atoms: _102  and  _103
REMARK   48  A    between atoms: _102  and  _105
REMARK   49  A    between atoms: _108  and  _110
REMARK   50  A    between atoms: _110  and  _111
REMARK   51  A    between atoms: _110  and  _113
REMARK   52  A    between atoms: _113  and  _114
REMARK   53  A    between atoms: _114  and  _115
REMARK   54  A    between atoms: _115  and  _116
REMARK   55  A    between atoms: _125  and  _127
REMARK   56  A    between atoms: _127  and  _128
REMARK   57  A    between atoms: _127  and  _130
REMARK   58  A    between atoms: _130  and  _131
REMARK   59  A    between atoms: _133  and  _135
REMARK   60  A    between atoms: _135  and  _136
REMARK   61  A    between atoms: _135  and  _138
REMARK   62  A    between atoms: _138  and  _139
REMARK   63  A    between atoms: _141  and  _143
REMARK   64  A    between atoms: _143  and  _144
REMARK   65  A    between atoms: _143  and  _146
REMARK   66  A    between atoms: _146  and  _147
REMARK   67  A    between atoms: _147  and  _148
REMARK   68  A    between atoms: _151  and  _153
REMARK   69  A    between atoms: _153  and  _154
REMARK   70  A    between atoms: _153  and  _156
REMARK   71  A    between atoms: _156  and  _157
REMARK   72  A    between atoms: _160  and  _162
REMARK   73  A    between atoms: _162  and  _163
REMARK   74  A    between atoms: _165  and  _167
REMARK   75  A    between atoms: _167  and  _168
REMARK   76  A    between atoms: _167  and  _170
REMARK   77  A    between atoms: _170  and  _171
REMARK   78  A    between atoms: _174  and  _176
REMARK   79  A    between atoms: _185  and  _188
REMARK   80  A    between atoms: _188  and  _189
REMARK   81  A    between atoms: _196  and  _197
REMARK   82  A    between atoms: _203  and  _205
REMARK   83  A    between atoms: _205  and  _206
REMARK   84  A    between atoms: _205  and  _208
REMARK   85  A    between atoms: _208  and  _209
REMARK   86  A    between atoms: _214  and  _215
REMARK   87  A    between atoms: _217  and  _219
REMARK   88  A    between atoms: _219  and  _220
REMARK   89  A    between atoms: _219  and  _222
REMARK   90  A    between atoms: _222  and  _223
REMARK   91  A    between atoms: _223  and  _224
REMARK   92  A    between atoms: _223  and  _225
REMARK   93  A    between atoms: _224  and  CA_258
REMARK   94  A    between atoms: _228  and  _230
REMARK   95  A    between atoms: _230  and  _231
REMARK   96  A    between atoms: _230  and  _233
REMARK   97  A    between atoms: _233  and  _234
REMARK   98  A    between atoms: _237  and  _239
REMARK   99  A    between atoms: _239  and  _240
REMARK  100  A    between atoms: _243  and  _245
REMARK  101  A    between atoms: _245  and  _246
REMARK  102  A    between atoms: _245  and  _248
REMARK  103  A    between atoms: _248  and  _249
REMARK  104  A    between atoms: _252  and  _254
REMARK  105  A    between atoms: _254  and  _255
REMARK                            x       y       z     vdW  Elec       q    Type
REMARK                         _______ _______ _______ _____ _____    ______ ____
ROOT
ATOM      1  O   HOH     1      25.432  23.223  33.247  0.00  0.00    +0.000 OA
ENDROOT
TORSDOF 0
REMARK  Name = ../refined-set-2016/2boj/2boj_pocket.pdb
REMARK  105 active torsions:
REMARK  status: ('A' for Active; 'I' for Inactive)
REMARK    1  A    between atoms: _1  and  _3
REMARK    2  A    between atoms: _3  and  _4
REMARK    3  A    between atoms: _7  and  _9
REMARK    4  A    between atoms: _9  and  _10
REMARK    5  A    between atoms: _9  and  _12
REMARK    6  A    between atoms: _10  and  _11
REMARK    7  A    between atoms: _10  and  _18
REMARK    8  A    between atoms: _11  and  CA_258
REMARK    9  A    between atoms: _12  and  _13
REMARK   10  A    between atoms: _18  and  _20
REMARK   11  A    between atoms: _20  and  _21
REMARK   12  A    between atoms: _20  and  _23
REMARK   13  A    between atoms: _23  and  _24
REMARK   14  A    between atoms: _26  and  _28
REMARK   15  A    between atoms: _28  and  _29
REMARK   16  A    between atoms: _28  and  _31
REMARK   17  A    between atoms: _31  and  _32
REMARK   18  A    between atoms: _34  and  _36
REMARK   19  A    between atoms: _36  and  _37
REMARK   20  A    between atoms: _39  and  _41
REMARK   21  A    between atoms: _41  and  _42
REMARK   22  A    between atoms: _41  and  _44
REMARK   23  A    between atoms: _44  and  _45
REMARK   24  A    between atoms: _48  and  _50
REMARK   25  A    between atoms: _50  and  _51
REMARK   26  A    between atoms: _50  and  _53
REMARK   27  A    between atoms: _53  and  _54
REMARK   28  A    between atoms: _54  and  _55
REMARK   29  A    between atoms: _60  and  _62
REMARK   30  A    between atoms: _62  and  _63
REMARK   31  A    between atoms: _62  and  _65
REMARK   32  A    between atoms: _65  and  _66
REMARK   33  A    between atoms: _66  and  _67
REMARK   34  A    between atoms: _72  and  _74
REMARK   35  A    between atoms: _74  and  _75
REMARK   36  A    between atoms: _74  and  _77
REMARK   37  A    between atoms: _77  and  _78
REMARK   38  A    between atoms: _80  and  _82
REMARK   39  A    between atoms: _82  and  _83
REMARK   40  A    between atoms: _82  and  _85
REMARK   41  A    between atoms: _85  and  _86
REMARK   42  A    between atoms: _89  and  _91
REMARK   43  A    between atoms: _91  and  _92
REMARK   44  A    between atoms: _91  and  _94
REMARK   45  A    between atoms: _94  and  _95
REMARK   46  A    between atoms: _100  and  _102
REMARK   47  A    between atoms: _102  and  _103
REMARK   48  A    between atoms: _102  and  _105
REMARK   49  A    between atoms: _108  and  _110
REMARK   50  A    between atoms: _110  and  _111
REMARK   51  A    between atoms: _110  and  _113
REMARK   52  A    between atoms: _113  and  _114
REMARK   53  A    between atoms: _114  and  _115
REMARK   54  A    between atoms: _115  and  _116
REMARK   55  A    between atoms: _125  and  _127
REMARK   56  A    between atoms: _127  and  _128
REMARK   57  A    between atoms: _127  and  _130
REMARK   58  A    between atoms: _130  and  _131
REMARK   59  A    between atoms: _133  and  _135
REMARK   60  A    between atoms: _135  and  _136
REMARK   61  A    between atoms: _135  and  _138
REMARK   62  A    between atoms: _138  and  _139
REMARK   63  A    between atoms: _141  and  _143
REMARK   64  A    between atoms: _143  and  _144
REMARK   65  A    between atoms: _143  and  _146
REMARK   66  A    between atoms: _146  and  _147
REMARK   67  A    between atoms: _147  and  _148
REMARK   68  A    between atoms: _151  and  _153
REMARK   69  A    between atoms: _153  and  _154
REMARK   70  A    between atoms: _153  and  _156
REMARK   71  A    between atoms: _156  and  _157
REMARK   72  A    between atoms: _160  and  _162
REMARK   73  A    between atoms: _162  and  _163
REMARK   74  A    between atoms: _165  and  _167
REMARK   75  A    between atoms: _167  and  _168
REMARK   76  A    between atoms: _167  and  _170
REMARK   77  A    between atoms: _170  and  _171
REMARK   78  A    between atoms: _174  and  _176
REMARK   79  A    between atoms: _185  and  _188
REMARK   80  A    between atoms: _188  and  _189
REMARK   81  A    between atoms: _196  and  _197
REMARK   82  A    between atoms: _203  and  _205
REMARK   83  A    between atoms: _205  and  _206
REMARK   84  A    between atoms: _205  and  _208
REMARK   85  A    between atoms: _208  and  _209
REMARK   86  A    between atoms: _214  and  _215
REMARK   87  A    between atoms: _217  and  _219
REMARK   88  A    between atoms: _219  and  _220
REMARK   89  A    between atoms: _219  and  _222
REMARK   90  A    between atoms: _222  and  _223
REMARK   91  A    between atoms: _223  and  _224
REMARK   92  A    between atoms: _223  and  _225
REMARK   93  A    between atoms: _224  and  CA_258
REMARK   94  A    between atoms: _228  and  _230
REMARK   95  A    between atoms: _230  and  _231
REMARK   96  A    between atoms: _230  and  _233
REMARK   97  A    between atoms: _233  and  _234
REMARK   98  A    between atoms: _237  and  _239
REMARK   99  A    between atoms: _239  and  _240
REMARK  100  A    between atoms: _243  and  _245
REMARK  101  A    between atoms: _245  and  _246
REMARK  102  A    between atoms: _245  and  _248
REMARK  103  A    between atoms: _248  and  _249
REMARK  104  A    between atoms: _252  and  _254
REMARK  105  A    between atoms: _254  and  _255
REMARK                            x       y       z     vdW  Elec       q    Type
REMARK                         _______ _______ _______ _____ _____    ______ ____
ROOT
ATOM      1  O   HOH     1      24.384  18.806  33.755  0.00  0.00    +0.000 OA
ENDROOT
TORSDOF 0
REMARK  Name = ../refined-set-2016/2boj/2boj_pocket.pdb
REMARK  105 active torsions:
REMARK  status: ('A' for Active; 'I' for Inactive)
REMARK    1  A    between atoms: _1  and  _3
REMARK    2  A    between atoms: _3  and  _4
REMARK    3  A    between atoms: _7  and  _9
REMARK    4  A    between atoms: _9  and  _10
REMARK    5  A    between atoms: _9  and  _12
REMARK    6  A    between atoms: _10  and  _11
REMARK    7  A    between atoms: _10  and  _18
REMARK    8  A    between atoms: _11  and  CA_258
REMARK    9  A    between atoms: _12  and  _13
REMARK   10  A    between atoms: _18  and  _20
REMARK   11  A    between atoms: _20  and  _21
REMARK   12  A    between atoms: _20  and  _23
REMARK   13  A    between atoms: _23  and  _24
REMARK   14  A    between atoms: _26  and  _28
REMARK   15  A    between atoms: _28  and  _29
REMARK   16  A    between atoms: _28  and  _31
REMARK   17  A    between atoms: _31  and  _32
REMARK   18  A    between atoms: _34  and  _36
REMARK   19  A    between atoms: _36  and  _37
REMARK   20  A    between atoms: _39  and  _41
REMARK   21  A    between atoms: _41  and  _42
REMARK   22  A    between atoms: _41  and  _44
REMARK   23  A    between atoms: _44  and  _45
REMARK   24  A    between atoms: _48  and  _50
REMARK   25  A    between atoms: _50  and  _51
REMARK   26  A    between atoms: _50  and  _53
REMARK   27  A    between atoms: _53  and  _54
REMARK   28  A    between atoms: _54  and  _55
REMARK   29  A    between atoms: _60  and  _62
REMARK   30  A    between atoms: _62  and  _63
REMARK   31  A    between atoms: _62  and  _65
REMARK   32  A    between atoms: _65  and  _66
REMARK   33  A    between atoms: _66  and  _67
REMARK   34  A    between atoms: _72  and  _74
REMARK   35  A    between atoms: _74  and  _75
REMARK   36  A    between atoms: _74  and  _77
REMARK   37  A    between atoms: _77  and  _78
REMARK   38  A    between atoms: _80  and  _82
REMARK   39  A    between atoms: _82  and  _83
REMARK   40  A    between atoms: _82  and  _85
REMARK   41  A    between atoms: _85  and  _86
REMARK   42  A    between atoms: _89  and  _91
REMARK   43  A    between atoms: _91  and  _92
REMARK   44  A    between atoms: _91  and  _94
REMARK   45  A    between atoms: _94  and  _95
REMARK   46  A    between atoms: _100  and  _102
REMARK   47  A    between atoms: _102  and  _103
REMARK   48  A    between atoms: _102  and  _105
REMARK   49  A    between atoms: _108  and  _110
REMARK   50  A    between atoms: _110  and  _111
REMARK   51  A    between atoms: _110  and  _113
REMARK   52  A    between atoms: _113  and  _114
REMARK   53  A    between atoms: _114  and  _115
REMARK   54  A    between atoms: _115  and  _116
REMARK   55  A    between atoms: _125  and  _127
REMARK   56  A    between atoms: _127  and  _128
REMARK   57  A    between atoms: _127  and  _130
REMARK   58  A    between atoms: _130  and  _131
REMARK   59  A    between atoms: _133  and  _135
REMARK   60  A    between atoms: _135  and  _136
REMARK   61  A    between atoms: _135  and  _138
REMARK   62  A    between atoms: _138  and  _139
REMARK   63  A    between atoms: _141  and  _143
REMARK   64  A    between atoms: _143  and  _144
REMARK   65  A    between atoms: _143  and  _146
REMARK   66  A    between atoms: _146  and  _147
REMARK   67  A    between atoms: _147  and  _148
REMARK   68  A    between atoms: _151  and  _153
REMARK   69  A    between atoms: _153  and  _154
REMARK   70  A    between atoms: _153  and  _156
REMARK   71  A    between atoms: _156  and  _157
REMARK   72  A    between atoms: _160  and  _162
REMARK   73  A    between atoms: _162  and  _163
REMARK   74  A    between atoms: _165  and  _167
REMARK   75  A    between atoms: _167  and  _168
REMARK   76  A    between atoms: _167  and  _170
REMARK   77  A    between atoms: _170  and  _171
REMARK   78  A    between atoms: _174  and  _176
REMARK   79  A    between atoms: _185  and  _188
REMARK   80  A    between atoms: _188  and  _189
REMARK   81  A    between atoms: _196  and  _197
REMARK   82  A    between atoms: _203  and  _205
REMARK   83  A    between atoms: _205  and  _206
REMARK   84  A    between atoms: _205  and  _208
REMARK   85  A    between atoms: _208  and  _209
REMARK   86  A    between atoms: _214  and  _215
REMARK   87  A    between atoms: _217  and  _219
REMARK   88  A    between atoms: _219  and  _220
REMARK   89  A    between atoms: _219  and  _222
REMARK   90  A    between atoms: _222  and  _223
REMARK   91  A    between atoms: _223  and  _224
REMARK   92  A    between atoms: _223  and  _225
REMARK   93  A    between atoms: _224  and  CA_258
REMARK   94  A    between atoms: _228  and  _230
REMARK   95  A    between atoms: _230  and  _231
REMARK   96  A    between atoms: _230  and  _233
REMARK   97  A    between atoms: _233  and  _234
REMARK   98  A    between atoms: _237  and  _239
REMARK   99  A    between atoms: _239  and  _240
REMARK  100  A    between atoms: _243  and  _245
REMARK  101  A    between atoms: _245  and  _246
REMARK  102  A    between atoms: _245  and  _248
REMARK  103  A    between atoms: _248  and  _249
REMARK  104  A    between atoms: _252  and  _254
REMARK  105  A    between atoms: _254  and  _255
REMARK                            x       y       z     vdW  Elec       q    Type
REMARK                         _______ _______ _______ _____ _____    ______ ____
ROOT
ATOM      1  O   HOH     1      19.004  27.187  35.051  0.00  0.00    +0.000 OA
ENDROOT
TORSDOF 0
REMARK  Name = ../refined-set-2016/2boj/2boj_pocket.pdb
REMARK  105 active torsions:
REMARK  status: ('A' for Active; 'I' for Inactive)
REMARK    1  A    between atoms: _1  and  _3
REMARK    2  A    between atoms: _3  and  _4
REMARK    3  A    between atoms: _7  and  _9
REMARK    4  A    between atoms: _9  and  _10
REMARK    5  A    between atoms: _9  and  _12
REMARK    6  A    between atoms: _10  and  _11
REMARK    7  A    between atoms: _10  and  _18
REMARK    8  A    between atoms: _11  and  CA_258
REMARK    9  A    between atoms: _12  and  _13
REMARK   10  A    between atoms: _18  and  _20
REMARK   11  A    between atoms: _20  and  _21
REMARK   12  A    between atoms: _20  and  _23
REMARK   13  A    between atoms: _23  and  _24
REMARK   14  A    between atoms: _26  and  _28
REMARK   15  A    between atoms: _28  and  _29
REMARK   16  A    between atoms: _28  and  _31
REMARK   17  A    between atoms: _31  and  _32
REMARK   18  A    between atoms: _34  and  _36
REMARK   19  A    between atoms: _36  and  _37
REMARK   20  A    between atoms: _39  and  _41
REMARK   21  A    between atoms: _41  and  _42
REMARK   22  A    between atoms: _41  and  _44
REMARK   23  A    between atoms: _44  and  _45
REMARK   24  A    between atoms: _48  and  _50
REMARK   25  A    between atoms: _50  and  _51
REMARK   26  A    between atoms: _50  and  _53
REMARK   27  A    between atoms: _53  and  _54
REMARK   28  A    between atoms: _54  and  _55
REMARK   29  A    between atoms: _60  and  _62
REMARK   30  A    between atoms: _62  and  _63
REMARK   31  A    between atoms: _62  and  _65
REMARK   32  A    between atoms: _65  and  _66
REMARK   33  A    between atoms: _66  and  _67
REMARK   34  A    between atoms: _72  and  _74
REMARK   35  A    between atoms: _74  and  _75
REMARK   36  A    between atoms: _74  and  _77
REMARK   37  A    between atoms: _77  and  _78
REMARK   38  A    between atoms: _80  and  _82
REMARK   39  A    between atoms: _82  and  _83
REMARK   40  A    between atoms: _82  and  _85
REMARK   41  A    between atoms: _85  and  _86
REMARK   42  A    between atoms: _89  and  _91
REMARK   43  A    between atoms: _91  and  _92
REMARK   44  A    between atoms: _91  and  _94
REMARK   45  A    between atoms: _94  and  _95
REMARK   46  A    between atoms: _100  and  _102
REMARK   47  A    between atoms: _102  and  _103
REMARK   48  A    between atoms: _102  and  _105
REMARK   49  A    between atoms: _108  and  _110
REMARK   50  A    between atoms: _110  and  _111
REMARK   51  A    between atoms: _110  and  _113
REMARK   52  A    between atoms: _113  and  _114
REMARK   53  A    between atoms: _114  and  _115
REMARK   54  A    between atoms: _115  and  _116
REMARK   55  A    between atoms: _125  and  _127
REMARK   56  A    between atoms: _127  and  _128
REMARK   57  A    between atoms: _127  and  _130
REMARK   58  A    between atoms: _130  and  _131
REMARK   59  A    between atoms: _133  and  _135
REMARK   60  A    between atoms: _135  and  _136
REMARK   61  A    between atoms: _135  and  _138
REMARK   62  A    between atoms: _138  and  _139
REMARK   63  A    between atoms: _141  and  _143
REMARK   64  A    between atoms: _143  and  _144
REMARK   65  A    between atoms: _143  and  _146
REMARK   66  A    between atoms: _146  and  _147
REMARK   67  A    between atoms: _147  and  _148
REMARK   68  A    between atoms: _151  and  _153
REMARK   69  A    between atoms: _153  and  _154
REMARK   70  A    between atoms: _153  and  _156
REMARK   71  A    between atoms: _156  and  _157
REMARK   72  A    between atoms: _160  and  _162
REMARK   73  A    between atoms: _162  and  _163
REMARK   74  A    between atoms: _165  and  _167
REMARK   75  A    between atoms: _167  and  _168
REMARK   76  A    between atoms: _167  and  _170
REMARK   77  A    between atoms: _170  and  _171
REMARK   78  A    between atoms: _174  and  _176
REMARK   79  A    between atoms: _185  and  _188
REMARK   80  A    between atoms: _188  and  _189
REMARK   81  A    between atoms: _196  and  _197
REMARK   82  A    between atoms: _203  and  _205
REMARK   83  A    between atoms: _205  and  _206
REMARK   84  A    between atoms: _205  and  _208
REMARK   85  A    between atoms: _208  and  _209
REMARK   86  A    between atoms: _214  and  _215
REMARK   87  A    between atoms: _217  and  _219
REMARK   88  A    between atoms: _219  and  _220
REMARK   89  A    between atoms: _219  and  _222
REMARK   90  A    between atoms: _222  and  _223
REMARK   91  A    between atoms: _223  and  _224
REMARK   92  A    between atoms: _223  and  _225
REMARK   93  A    between atoms: _224  and  CA_258
REMARK   94  A    between atoms: _228  and  _230
REMARK   95  A    between atoms: _230  and  _231
REMARK   96  A    between atoms: _230  and  _233
REMARK   97  A    between atoms: _233  and  _234
REMARK   98  A    between atoms: _237  and  _239
REMARK   99  A    between atoms: _239  and  _240
REMARK  100  A    between atoms: _243  and  _245
REMARK  101  A    between atoms: _245  and  _246
REMARK  102  A    between atoms: _245  and  _248
REMARK  103  A    between atoms: _248  and  _249
REMARK  104  A    between atoms: _252  and  _254
REMARK  105  A    between atoms: _254  and  _255
REMARK                            x       y       z     vdW  Elec       q    Type
REMARK                         _______ _______ _______ _____ _____    ______ ____
ROOT
ATOM      1  O   HOH     1      22.489  30.818  29.126  0.00  0.00    +0.000 OA
ENDROOT
TORSDOF 0
REMARK  Name = ../refined-set-2016/2boj/2boj_pocket.pdb
REMARK  105 active torsions:
REMARK  status: ('A' for Active; 'I' for Inactive)
REMARK    1  A    between atoms: _1  and  _3
REMARK    2  A    between atoms: _3  and  _4
REMARK    3  A    between atoms: _7  and  _9
REMARK    4  A    between atoms: _9  and  _10
REMARK    5  A    between atoms: _9  and  _12
REMARK    6  A    between atoms: _10  and  _11
REMARK    7  A    between atoms: _10  and  _18
REMARK    8  A    between atoms: _11  and  CA_258
REMARK    9  A    between atoms: _12  and  _13
REMARK   10  A    between atoms: _18  and  _20
REMARK   11  A    between atoms: _20  and  _21
REMARK   12  A    between atoms: _20  and  _23
REMARK   13  A    between atoms: _23  and  _24
REMARK   14  A    between atoms: _26  and  _28
REMARK   15  A    between atoms: _28  and  _29
REMARK   16  A    between atoms: _28  and  _31
REMARK   17  A    between atoms: _31  and  _32
REMARK   18  A    between atoms: _34  and  _36
REMARK   19  A    between atoms: _36  and  _37
REMARK   20  A    between atoms: _39  and  _41
REMARK   21  A    between atoms: _41  and  _42
REMARK   22  A    between atoms: _41  and  _44
REMARK   23  A    between atoms: _44  and  _45
REMARK   24  A    between atoms: _48  and  _50
REMARK   25  A    between atoms: _50  and  _51
REMARK   26  A    between atoms: _50  and  _53
REMARK   27  A    between atoms: _53  and  _54
REMARK   28  A    between atoms: _54  and  _55
REMARK   29  A    between atoms: _60  and  _62
REMARK   30  A    between atoms: _62  and  _63
REMARK   31  A    between atoms: _62  and  _65
REMARK   32  A    between atoms: _65  and  _66
REMARK   33  A    between atoms: _66  and  _67
REMARK   34  A    between atoms: _72  and  _74
REMARK   35  A    between atoms: _74  and  _75
REMARK   36  A    between atoms: _74  and  _77
REMARK   37  A    between atoms: _77  and  _78
REMARK   38  A    between atoms: _80  and  _82
REMARK   39  A    between atoms: _82  and  _83
REMARK   40  A    between atoms: _82  and  _85
REMARK   41  A    between atoms: _85  and  _86
REMARK   42  A    between atoms: _89  and  _91
REMARK   43  A    between atoms: _91  and  _92
REMARK   44  A    between atoms: _91  and  _94
REMARK   45  A    between atoms: _94  and  _95
REMARK   46  A    between atoms: _100  and  _102
REMARK   47  A    between atoms: _102  and  _103
REMARK   48  A    between atoms: _102  and  _105
REMARK   49  A    between atoms: _108  and  _110
REMARK   50  A    between atoms: _110  and  _111
REMARK   51  A    between atoms: _110  and  _113
REMARK   52  A    between atoms: _113  and  _114
REMARK   53  A    between atoms: _114  and  _115
REMARK   54  A    between atoms: _115  and  _116
REMARK   55  A    between atoms: _125  and  _127
REMARK   56  A    between atoms: _127  and  _128
REMARK   57  A    between atoms: _127  and  _130
REMARK   58  A    between atoms: _130  and  _131
REMARK   59  A    between atoms: _133  and  _135
REMARK   60  A    between atoms: _135  and  _136
REMARK   61  A    between atoms: _135  and  _138
REMARK   62  A    between atoms: _138  and  _139
REMARK   63  A    between atoms: _141  and  _143
REMARK   64  A    between atoms: _143  and  _144
REMARK   65  A    between atoms: _143  and  _146
REMARK   66  A    between atoms: _146  and  _147
REMARK   67  A    between atoms: _147  and  _148
REMARK   68  A    between atoms: _151  and  _153
REMARK   69  A    between atoms: _153  and  _154
REMARK   70  A    between atoms: _153  and  _156
REMARK   71  A    between atoms: _156  and  _157
REMARK   72  A    between atoms: _160  and  _162
REMARK   73  A    between atoms: _162  and  _163
REMARK   74  A    between atoms: _165  and  _167
REMARK   75  A    between atoms: _167  and  _168
REMARK   76  A    between atoms: _167  and  _170
REMARK   77  A    between atoms: _170  and  _171
REMARK   78  A    between atoms: _174  and  _176
REMARK   79  A    between atoms: _185  and  _188
REMARK   80  A    between atoms: _188  and  _189
REMARK   81  A    between atoms: _196  and  _197
REMARK   82  A    between atoms: _203  and  _205
REMARK   83  A    between atoms: _205  and  _206
REMARK   84  A    between atoms: _205  and  _208
REMARK   85  A    between atoms: _208  and  _209
REMARK   86  A    between atoms: _214  and  _215
REMARK   87  A    between atoms: _217  and  _219
REMARK   88  A    between atoms: _219  and  _220
REMARK   89  A    between atoms: _219  and  _222
REMARK   90  A    between atoms: _222  and  _223
REMARK   91  A    between atoms: _223  and  _224
REMARK   92  A    between atoms: _223  and  _225
REMARK   93  A    between atoms: _224  and  CA_258
REMARK   94  A    between atoms: _228  and  _230
REMARK   95  A    between atoms: _230  and  _231
REMARK   96  A    between atoms: _230  and  _233
REMARK   97  A    between atoms: _233  and  _234
REMARK   98  A    between atoms: _237  and  _239
REMARK   99  A    between atoms: _239  and  _240
REMARK  100  A    between atoms: _243  and  _245
REMARK  101  A    between atoms: _245  and  _246
REMARK  102  A    between atoms: _245  and  _248
REMARK  103  A    between atoms: _248  and  _249
REMARK  104  A    between atoms: _252  and  _254
REMARK  105  A    between atoms: _254  and  _255
REMARK                            x       y       z     vdW  Elec       q    Type
REMARK                         _______ _______ _______ _____ _____    ______ ____
ROOT
ATOM      1  O   HOH     1      27.040  21.792  28.720  0.00  0.00    +0.000 OA
ENDROOT
TORSDOF 0
REMARK  Name = ../refined-set-2016/2boj/2boj_pocket.pdb
REMARK  105 active torsions:
REMARK  status: ('A' for Active; 'I' for Inactive)
REMARK    1  A    between atoms: _1  and  _3
REMARK    2  A    between atoms: _3  and  _4
REMARK    3  A    between atoms: _7  and  _9
REMARK    4  A    between atoms: _9  and  _10
REMARK    5  A    between atoms: _9  and  _12
REMARK    6  A    between atoms: _10  and  _11
REMARK    7  A    between atoms: _10  and  _18
REMARK    8  A    between atoms: _11  and  CA_258
REMARK    9  A    between atoms: _12  and  _13
REMARK   10  A    between atoms: _18  and  _20
REMARK   11  A    between atoms: _20  and  _21
REMARK   12  A    between atoms: _20  and  _23
REMARK   13  A    between atoms: _23  and  _24
REMARK   14  A    between atoms: _26  and  _28
REMARK   15  A    between atoms: _28  and  _29
REMARK   16  A    between atoms: _28  and  _31
REMARK   17  A    between atoms: _31  and  _32
REMARK   18  A    between atoms: _34  and  _36
REMARK   19  A    between atoms: _36  and  _37
REMARK   20  A    between atoms: _39  and  _41
REMARK   21  A    between atoms: _41  and  _42
REMARK   22  A    between atoms: _41  and  _44
REMARK   23  A    between atoms: _44  and  _45
REMARK   24  A    between atoms: _48  and  _50
REMARK   25  A    between atoms: _50  and  _51
REMARK   26  A    between atoms: _50  and  _53
REMARK   27  A    between atoms: _53  and  _54
REMARK   28  A    between atoms: _54  and  _55
REMARK   29  A    between atoms: _60  and  _62
REMARK   30  A    between atoms: _62  and  _63
REMARK   31  A    between atoms: _62  and  _65
REMARK   32  A    between atoms: _65  and  _66
REMARK   33  A    between atoms: _66  and  _67
REMARK   34  A    between atoms: _72  and  _74
REMARK   35  A    between atoms: _74  and  _75
REMARK   36  A    between atoms: _74  and  _77
REMARK   37  A    between atoms: _77  and  _78
REMARK   38  A    between atoms: _80  and  _82
REMARK   39  A    between atoms: _82  and  _83
REMARK   40  A    between atoms: _82  and  _85
REMARK   41  A    between atoms: _85  and  _86
REMARK   42  A    between atoms: _89  and  _91
REMARK   43  A    between atoms: _91  and  _92
REMARK   44  A    between atoms: _91  and  _94
REMARK   45  A    between atoms: _94  and  _95
REMARK   46  A    between atoms: _100  and  _102
REMARK   47  A    between atoms: _102  and  _103
REMARK   48  A    between atoms: _102  and  _105
REMARK   49  A    between atoms: _108  and  _110
REMARK   50  A    between atoms: _110  and  _111
REMARK   51  A    between atoms: _110  and  _113
REMARK   52  A    between atoms: _113  and  _114
REMARK   53  A    between atoms: _114  and  _115
REMARK   54  A    between atoms: _115  and  _116
REMARK   55  A    between atoms: _125  and  _127
REMARK   56  A    between atoms: _127  and  _128
REMARK   57  A    between atoms: _127  and  _130
REMARK   58  A    between atoms: _130  and  _131
REMARK   59  A    between atoms: _133  and  _135
REMARK   60  A    between atoms: _135  and  _136
REMARK   61  A    between atoms: _135  and  _138
REMARK   62  A    between atoms: _138  and  _139
REMARK   63  A    between atoms: _141  and  _143
REMARK   64  A    between atoms: _143  and  _144
REMARK   65  A    between atoms: _143  and  _146
REMARK   66  A    between atoms: _146  and  _147
REMARK   67  A    between atoms: _147  and  _148
REMARK   68  A    between atoms: _151  and  _153
REMARK   69  A    between atoms: _153  and  _154
REMARK   70  A    between atoms: _153  and  _156
REMARK   71  A    between atoms: _156  and  _157
REMARK   72  A    between atoms: _160  and  _162
REMARK   73  A    between atoms: _162  and  _163
REMARK   74  A    between atoms: _165  and  _167
REMARK   75  A    between atoms: _167  and  _168
REMARK   76  A    between atoms: _167  and  _170
REMARK   77  A    between atoms: _170  and  _171
REMARK   78  A    between atoms: _174  and  _176
REMARK   79  A    between atoms: _185  and  _188
REMARK   80  A    between atoms: _188  and  _189
REMARK   81  A    between atoms: _196  and  _197
REMARK   82  A    between atoms: _203  and  _205
REMARK   83  A    between atoms: _205  and  _206
REMARK   84  A    between atoms: _205  and  _208
REMARK   85  A    between atoms: _208  and  _209
REMARK   86  A    between atoms: _214  and  _215
REMARK   87  A    between atoms: _217  and  _219
REMARK   88  A    between atoms: _219  and  _220
REMARK   89  A    between atoms: _219  and  _222
REMARK   90  A    between atoms: _222  and  _223
REMARK   91  A    between atoms: _223  and  _224
REMARK   92  A    between atoms: _223  and  _225
REMARK   93  A    between atoms: _224  and  CA_258
REMARK   94  A    between atoms: _228  and  _230
REMARK   95  A    between atoms: _230  and  _231
REMARK   96  A    between atoms: _230  and  _233
REMARK   97  A    between atoms: _233  and  _234
REMARK   98  A    between atoms: _237  and  _239
REMARK   99  A    between atoms: _239  and  _240
REMARK  100  A    between atoms: _243  and  _245
REMARK  101  A    between atoms: _245  and  _246
REMARK  102  A    between atoms: _245  and  _248
REMARK  103  A    between atoms: _248  and  _249
REMARK  104  A    between atoms: _252  and  _254
REMARK  105  A    between atoms: _254  and  _255
REMARK                            x       y       z     vdW  Elec       q    Type
REMARK                         _______ _______ _______ _____ _____    ______ ____
ROOT
ATOM      1  O   HOH     1      30.548  20.181  26.969  0.00  0.00    +0.000 OA
ENDROOT
TORSDOF 0
REMARK  Name = ../refined-set-2016/2boj/2boj_pocket.pdb
REMARK  105 active torsions:
REMARK  status: ('A' for Active; 'I' for Inactive)
REMARK    1  A    between atoms: _1  and  _3
REMARK    2  A    between atoms: _3  and  _4
REMARK    3  A    between atoms: _7  and  _9
REMARK    4  A    between atoms: _9  and  _10
REMARK    5  A    between atoms: _9  and  _12
REMARK    6  A    between atoms: _10  and  _11
REMARK    7  A    between atoms: _10  and  _18
REMARK    8  A    between atoms: _11  and  CA_258
REMARK    9  A    between atoms: _12  and  _13
REMARK   10  A    between atoms: _18  and  _20
REMARK   11  A    between atoms: _20  and  _21
REMARK   12  A    between atoms: _20  and  _23
REMARK   13  A    between atoms: _23  and  _24
REMARK   14  A    between atoms: _26  and  _28
REMARK   15  A    between atoms: _28  and  _29
REMARK   16  A    between atoms: _28  and  _31
REMARK   17  A    between atoms: _31  and  _32
REMARK   18  A    between atoms: _34  and  _36
REMARK   19  A    between atoms: _36  and  _37
REMARK   20  A    between atoms: _39  and  _41
REMARK   21  A    between atoms: _41  and  _42
REMARK   22  A    between atoms: _41  and  _44
REMARK   23  A    between atoms: _44  and  _45
REMARK   24  A    between atoms: _48  and  _50
REMARK   25  A    between atoms: _50  and  _51
REMARK   26  A    between atoms: _50  and  _53
REMARK   27  A    between atoms: _53  and  _54
REMARK   28  A    between atoms: _54  and  _55
REMARK   29  A    between atoms: _60  and  _62
REMARK   30  A    between atoms: _62  and  _63
REMARK   31  A    between atoms: _62  and  _65
REMARK   32  A    between atoms: _65  and  _66
REMARK   33  A    between atoms: _66  and  _67
REMARK   34  A    between atoms: _72  and  _74
REMARK   35  A    between atoms: _74  and  _75
REMARK   36  A    between atoms: _74  and  _77
REMARK   37  A    between atoms: _77  and  _78
REMARK   38  A    between atoms: _80  and  _82
REMARK   39  A    between atoms: _82  and  _83
REMARK   40  A    between atoms: _82  and  _85
REMARK   41  A    between atoms: _85  and  _86
REMARK   42  A    between atoms: _89  and  _91
REMARK   43  A    between atoms: _91  and  _92
REMARK   44  A    between atoms: _91  and  _94
REMARK   45  A    between atoms: _94  and  _95
REMARK   46  A    between atoms: _100  and  _102
REMARK   47  A    between atoms: _102  and  _103
REMARK   48  A    between atoms: _102  and  _105
REMARK   49  A    between atoms: _108  and  _110
REMARK   50  A    between atoms: _110  and  _111
REMARK   51  A    between atoms: _110  and  _113
REMARK   52  A    between atoms: _113  and  _114
REMARK   53  A    between atoms: _114  and  _115
REMARK   54  A    between atoms: _115  and  _116
REMARK   55  A    between atoms: _125  and  _127
REMARK   56  A    between atoms: _127  and  _128
REMARK   57  A    between atoms: _127  and  _130
REMARK   58  A    between atoms: _130  and  _131
REMARK   59  A    between atoms: _133  and  _135
REMARK   60  A    between atoms: _135  and  _136
REMARK   61  A    between atoms: _135  and  _138
REMARK   62  A    between atoms: _138  and  _139
REMARK   63  A    between atoms: _141  and  _143
REMARK   64  A    between atoms: _143  and  _144
REMARK   65  A    between atoms: _143  and  _146
REMARK   66  A    between atoms: _146  and  _147
REMARK   67  A    between atoms: _147  and  _148
REMARK   68  A    between atoms: _151  and  _153
REMARK   69  A    between atoms: _153  and  _154
REMARK   70  A    between atoms: _153  and  _156
REMARK   71  A    between atoms: _156  and  _157
REMARK   72  A    between atoms: _160  and  _162
REMARK   73  A    between atoms: _162  and  _163
REMARK   74  A    between atoms: _165  and  _167
REMARK   75  A    between atoms: _167  and  _168
REMARK   76  A    between atoms: _167  and  _170
REMARK   77  A    between atoms: _170  and  _171
REMARK   78  A    between atoms: _174  and  _176
REMARK   79  A    between atoms: _185  and  _188
REMARK   80  A    between atoms: _188  and  _189
REMARK   81  A    between atoms: _196  and  _197
REMARK   82  A    between atoms: _203  and  _205
REMARK   83  A    between atoms: _205  and  _206
REMARK   84  A    between atoms: _205  and  _208
REMARK   85  A    between atoms: _208  and  _209
REMARK   86  A    between atoms: _214  and  _215
REMARK   87  A    between atoms: _217  and  _219
REMARK   88  A    between atoms: _219  and  _220
REMARK   89  A    between atoms: _219  and  _222
REMARK   90  A    between atoms: _222  and  _223
REMARK   91  A    between atoms: _223  and  _224
REMARK   92  A    between atoms: _223  and  _225
REMARK   93  A    between atoms: _224  and  CA_258
REMARK   94  A    between atoms: _228  and  _230
REMARK   95  A    between atoms: _230  and  _231
REMARK   96  A    between atoms: _230  and  _233
REMARK   97  A    between atoms: _233  and  _234
REMARK   98  A    between atoms: _237  and  _239
REMARK   99  A    between atoms: _239  and  _240
REMARK  100  A    between atoms: _243  and  _245
REMARK  101  A    between atoms: _245  and  _246
REMARK  102  A    between atoms: _245  and  _248
REMARK  103  A    between atoms: _248  and  _249
REMARK  104  A    between atoms: _252  and  _254
REMARK  105  A    between atoms: _254  and  _255
REMARK                            x       y       z     vdW  Elec       q    Type
REMARK                         _______ _______ _______ _____ _____    ______ ____
ROOT
ATOM      1  O   HOH     1      23.559  18.957  26.764  0.00  0.00    +0.000 OA
ENDROOT
TORSDOF 0
REMARK  Name = ../refined-set-2016/2boj/2boj_pocket.pdb
REMARK  105 active torsions:
REMARK  status: ('A' for Active; 'I' for Inactive)
REMARK    1  A    between atoms: _1  and  _3
REMARK    2  A    between atoms: _3  and  _4
REMARK    3  A    between atoms: _7  and  _9
REMARK    4  A    between atoms: _9  and  _10
REMARK    5  A    between atoms: _9  and  _12
REMARK    6  A    between atoms: _10  and  _11
REMARK    7  A    between atoms: _10  and  _18
REMARK    8  A    between atoms: _11  and  CA_258
REMARK    9  A    between atoms: _12  and  _13
REMARK   10  A    between atoms: _18  and  _20
REMARK   11  A    between atoms: _20  and  _21
REMARK   12  A    between atoms: _20  and  _23
REMARK   13  A    between atoms: _23  and  _24
REMARK   14  A    between atoms: _26  and  _28
REMARK   15  A    between atoms: _28  and  _29
REMARK   16  A    between atoms: _28  and  _31
REMARK   17  A    between atoms: _31  and  _32
REMARK   18  A    between atoms: _34  and  _36
REMARK   19  A    between atoms: _36  and  _37
REMARK   20  A    between atoms: _39  and  _41
REMARK   21  A    between atoms: _41  and  _42
REMARK   22  A    between atoms: _41  and  _44
REMARK   23  A    between atoms: _44  and  _45
REMARK   24  A    between atoms: _48  and  _50
REMARK   25  A    between atoms: _50  and  _51
REMARK   26  A    between atoms: _50  and  _53
REMARK   27  A    between atoms: _53  and  _54
REMARK   28  A    between atoms: _54  and  _55
REMARK   29  A    between atoms: _60  and  _62
REMARK   30  A    between atoms: _62  and  _63
REMARK   31  A    between atoms: _62  and  _65
REMARK   32  A    between atoms: _65  and  _66
REMARK   33  A    between atoms: _66  and  _67
REMARK   34  A    between atoms: _72  and  _74
REMARK   35  A    between atoms: _74  and  _75
REMARK   36  A    between atoms: _74  and  _77
REMARK   37  A    between atoms: _77  and  _78
REMARK   38  A    between atoms: _80  and  _82
REMARK   39  A    between atoms: _82  and  _83
REMARK   40  A    between atoms: _82  and  _85
REMARK   41  A    between atoms: _85  and  _86
REMARK   42  A    between atoms: _89  and  _91
REMARK   43  A    between atoms: _91  and  _92
REMARK   44  A    between atoms: _91  and  _94
REMARK   45  A    between atoms: _94  and  _95
REMARK   46  A    between atoms: _100  and  _102
REMARK   47  A    between atoms: _102  and  _103
REMARK   48  A    between atoms: _102  and  _105
REMARK   49  A    between atoms: _108  and  _110
REMARK   50  A    between atoms: _110  and  _111
REMARK   51  A    between atoms: _110  and  _113
REMARK   52  A    between atoms: _113  and  _114
REMARK   53  A    between atoms: _114  and  _115
REMARK   54  A    between atoms: _115  and  _116
REMARK   55  A    between atoms: _125  and  _127
REMARK   56  A    between atoms: _127  and  _128
REMARK   57  A    between atoms: _127  and  _130
REMARK   58  A    between atoms: _130  and  _131
REMARK   59  A    between atoms: _133  and  _135
REMARK   60  A    between atoms: _135  and  _136
REMARK   61  A    between atoms: _135  and  _138
REMARK   62  A    between atoms: _138  and  _139
REMARK   63  A    between atoms: _141  and  _143
REMARK   64  A    between atoms: _143  and  _144
REMARK   65  A    between atoms: _143  and  _146
REMARK   66  A    between atoms: _146  and  _147
REMARK   67  A    between atoms: _147  and  _148
REMARK   68  A    between atoms: _151  and  _153
REMARK   69  A    between atoms: _153  and  _154
REMARK   70  A    between atoms: _153  and  _156
REMARK   71  A    between atoms: _156  and  _157
REMARK   72  A    between atoms: _160  and  _162
REMARK   73  A    between atoms: _162  and  _163
REMARK   74  A    between atoms: _165  and  _167
REMARK   75  A    between atoms: _167  and  _168
REMARK   76  A    between atoms: _167  and  _170
REMARK   77  A    between atoms: _170  and  _171
REMARK   78  A    between atoms: _174  and  _176
REMARK   79  A    between atoms: _185  and  _188
REMARK   80  A    between atoms: _188  and  _189
REMARK   81  A    between atoms: _196  and  _197
REMARK   82  A    between atoms: _203  and  _205
REMARK   83  A    between atoms: _205  and  _206
REMARK   84  A    between atoms: _205  and  _208
REMARK   85  A    between atoms: _208  and  _209
REMARK   86  A    between atoms: _214  and  _215
REMARK   87  A    between atoms: _217  and  _219
REMARK   88  A    between atoms: _219  and  _220
REMARK   89  A    between atoms: _219  and  _222
REMARK   90  A    between atoms: _222  and  _223
REMARK   91  A    between atoms: _223  and  _224
REMARK   92  A    between atoms: _223  and  _225
REMARK   93  A    between atoms: _224  and  CA_258
REMARK   94  A    between atoms: _228  and  _230
REMARK   95  A    between atoms: _230  and  _231
REMARK   96  A    between atoms: _230  and  _233
REMARK   97  A    between atoms: _233  and  _234
REMARK   98  A    between atoms: _237  and  _239
REMARK   99  A    between atoms: _239  and  _240
REMARK  100  A    between atoms: _243  and  _245
REMARK  101  A    between atoms: _245  and  _246
REMARK  102  A    between atoms: _245  and  _248
REMARK  103  A    between atoms: _248  and  _249
REMARK  104  A    between atoms: _252  and  _254
REMARK  105  A    between atoms: _254  and  _255
REMARK                            x       y       z     vdW  Elec       q    Type
REMARK                         _______ _______ _______ _____ _____    ______ ____
ROOT
ATOM      1  O   HOH     1      21.192  18.456  27.981  0.00  0.00    +0.000 OA
ENDROOT
TORSDOF 0
REMARK  Name = ../refined-set-2016/2boj/2boj_pocket.pdb
REMARK  105 active torsions:
REMARK  status: ('A' for Active; 'I' for Inactive)
REMARK    1  A    between atoms: _1  and  _3
REMARK    2  A    between atoms: _3  and  _4
REMARK    3  A    between atoms: _7  and  _9
REMARK    4  A    between atoms: _9  and  _10
REMARK    5  A    between atoms: _9  and  _12
REMARK    6  A    between atoms: _10  and  _11
REMARK    7  A    between atoms: _10  and  _18
REMARK    8  A    between atoms: _11  and  CA_258
REMARK    9  A    between atoms: _12  and  _13
REMARK   10  A    between atoms: _18  and  _20
REMARK   11  A    between atoms: _20  and  _21
REMARK   12  A    between atoms: _20  and  _23
REMARK   13  A    between atoms: _23  and  _24
REMARK   14  A    between atoms: _26  and  _28
REMARK   15  A    between atoms: _28  and  _29
REMARK   16  A    between atoms: _28  and  _31
REMARK   17  A    between atoms: _31  and  _32
REMARK   18  A    between atoms: _34  and  _36
REMARK   19  A    between atoms: _36  and  _37
REMARK   20  A    between atoms: _39  and  _41
REMARK   21  A    between atoms: _41  and  _42
REMARK   22  A    between atoms: _41  and  _44
REMARK   23  A    between atoms: _44  and  _45
REMARK   24  A    between atoms: _48  and  _50
REMARK   25  A    between atoms: _50  and  _51
REMARK   26  A    between atoms: _50  and  _53
REMARK   27  A    between atoms: _53  and  _54
REMARK   28  A    between atoms: _54  and  _55
REMARK   29  A    between atoms: _60  and  _62
REMARK   30  A    between atoms: _62  and  _63
REMARK   31  A    between atoms: _62  and  _65
REMARK   32  A    between atoms: _65  and  _66
REMARK   33  A    between atoms: _66  and  _67
REMARK   34  A    between atoms: _72  and  _74
REMARK   35  A    between atoms: _74  and  _75
REMARK   36  A    between atoms: _74  and  _77
REMARK   37  A    between atoms: _77  and  _78
REMARK   38  A    between atoms: _80  and  _82
REMARK   39  A    between atoms: _82  and  _83
REMARK   40  A    between atoms: _82  and  _85
REMARK   41  A    between atoms: _85  and  _86
REMARK   42  A    between atoms: _89  and  _91
REMARK   43  A    between atoms: _91  and  _92
REMARK   44  A    between atoms: _91  and  _94
REMARK   45  A    between atoms: _94  and  _95
REMARK   46  A    between atoms: _100  and  _102
REMARK   47  A    between atoms: _102  and  _103
REMARK   48  A    between atoms: _102  and  _105
REMARK   49  A    between atoms: _108  and  _110
REMARK   50  A    between atoms: _110  and  _111
REMARK   51  A    between atoms: _110  and  _113
REMARK   52  A    between atoms: _113  and  _114
REMARK   53  A    between atoms: _114  and  _115
REMARK   54  A    between atoms: _115  and  _116
REMARK   55  A    between atoms: _125  and  _127
REMARK   56  A    between atoms: _127  and  _128
REMARK   57  A    between atoms: _127  and  _130
REMARK   58  A    between atoms: _130  and  _131
REMARK   59  A    between atoms: _133  and  _135
REMARK   60  A    between atoms: _135  and  _136
REMARK   61  A    between atoms: _135  and  _138
REMARK   62  A    between atoms: _138  and  _139
REMARK   63  A    between atoms: _141  and  _143
REMARK   64  A    between atoms: _143  and  _144
REMARK   65  A    between atoms: _143  and  _146
REMARK   66  A    between atoms: _146  and  _147
REMARK   67  A    between atoms: _147  and  _148
REMARK   68  A    between atoms: _151  and  _153
REMARK   69  A    between atoms: _153  and  _154
REMARK   70  A    between atoms: _153  and  _156
REMARK   71  A    between atoms: _156  and  _157
REMARK   72  A    between atoms: _160  and  _162
REMARK   73  A    between atoms: _162  and  _163
REMARK   74  A    between atoms: _165  and  _167
REMARK   75  A    between atoms: _167  and  _168
REMARK   76  A    between atoms: _167  and  _170
REMARK   77  A    between atoms: _170  and  _171
REMARK   78  A    between atoms: _174  and  _176
REMARK   79  A    between atoms: _185  and  _188
REMARK   80  A    between atoms: _188  and  _189
REMARK   81  A    between atoms: _196  and  _197
REMARK   82  A    between atoms: _203  and  _205
REMARK   83  A    between atoms: _205  and  _206
REMARK   84  A    between atoms: _205  and  _208
REMARK   85  A    between atoms: _208  and  _209
REMARK   86  A    between atoms: _214  and  _215
REMARK   87  A    between atoms: _217  and  _219
REMARK   88  A    between atoms: _219  and  _220
REMARK   89  A    between atoms: _219  and  _222
REMARK   90  A    between atoms: _222  and  _223
REMARK   91  A    between atoms: _223  and  _224
REMARK   92  A    between atoms: _223  and  _225
REMARK   93  A    between atoms: _224  and  CA_258
REMARK   94  A    between atoms: _228  and  _230
REMARK   95  A    between atoms: _230  and  _231
REMARK   96  A    between atoms: _230  and  _233
REMARK   97  A    between atoms: _233  and  _234
REMARK   98  A    between atoms: _237  and  _239
REMARK   99  A    between atoms: _239  and  _240
REMARK  100  A    between atoms: _243  and  _245
REMARK  101  A    between atoms: _245  and  _246
REMARK  102  A    between atoms: _245  and  _248
REMARK  103  A    between atoms: _248  and  _249
REMARK  104  A    between atoms: _252  and  _254
REMARK  105  A    between atoms: _254  and  _255
REMARK                            x       y       z     vdW  Elec       q    Type
REMARK                         _______ _______ _______ _____ _____    ______ ____
ROOT
ATOM      1  O   HOH     1      26.021  23.995  30.400  0.00  0.00    +0.000 OA
ENDROOT
TORSDOF 0
REMARK  Name = ../refined-set-2016/2boj/2boj_pocket.pdb
REMARK  105 active torsions:
REMARK  status: ('A' for Active; 'I' for Inactive)
REMARK    1  A    between atoms: _1  and  _3
REMARK    2  A    between atoms: _3  and  _4
REMARK    3  A    between atoms: _7  and  _9
REMARK    4  A    between atoms: _9  and  _10
REMARK    5  A    between atoms: _9  and  _12
REMARK    6  A    between atoms: _10  and  _11
REMARK    7  A    between atoms: _10  and  _18
REMARK    8  A    between atoms: _11  and  CA_258
REMARK    9  A    between atoms: _12  and  _13
REMARK   10  A    between atoms: _18  and  _20
REMARK   11  A    between atoms: _20  and  _21
REMARK   12  A    between atoms: _20  and  _23
REMARK   13  A    between atoms: _23  and  _24
REMARK   14  A    between atoms: _26  and  _28
REMARK   15  A    between atoms: _28  and  _29
REMARK   16  A    between atoms: _28  and  _31
REMARK   17  A    between atoms: _31  and  _32
REMARK   18  A    between atoms: _34  and  _36
REMARK   19  A    between atoms: _36  and  _37
REMARK   20  A    between atoms: _39  and  _41
REMARK   21  A    between atoms: _41  and  _42
REMARK   22  A    between atoms: _41  and  _44
REMARK   23  A    between atoms: _44  and  _45
REMARK   24  A    between atoms: _48  and  _50
REMARK   25  A    between atoms: _50  and  _51
REMARK   26  A    between atoms: _50  and  _53
REMARK   27  A    between atoms: _53  and  _54
REMARK   28  A    between atoms: _54  and  _55
REMARK   29  A    between atoms: _60  and  _62
REMARK   30  A    between atoms: _62  and  _63
REMARK   31  A    between atoms: _62  and  _65
REMARK   32  A    between atoms: _65  and  _66
REMARK   33  A    between atoms: _66  and  _67
REMARK   34  A    between atoms: _72  and  _74
REMARK   35  A    between atoms: _74  and  _75
REMARK   36  A    between atoms: _74  and  _77
REMARK   37  A    between atoms: _77  and  _78
REMARK   38  A    between atoms: _80  and  _82
REMARK   39  A    between atoms: _82  and  _83
REMARK   40  A    between atoms: _82  and  _85
REMARK   41  A    between atoms: _85  and  _86
REMARK   42  A    between atoms: _89  and  _91
REMARK   43  A    between atoms: _91  and  _92
REMARK   44  A    between atoms: _91  and  _94
REMARK   45  A    between atoms: _94  and  _95
REMARK   46  A    between atoms: _100  and  _102
REMARK   47  A    between atoms: _102  and  _103
REMARK   48  A    between atoms: _102  and  _105
REMARK   49  A    between atoms: _108  and  _110
REMARK   50  A    between atoms: _110  and  _111
REMARK   51  A    between atoms: _110  and  _113
REMARK   52  A    between atoms: _113  and  _114
REMARK   53  A    between atoms: _114  and  _115
REMARK   54  A    between atoms: _115  and  _116
REMARK   55  A    between atoms: _125  and  _127
REMARK   56  A    between atoms: _127  and  _128
REMARK   57  A    between atoms: _127  and  _130
REMARK   58  A    between atoms: _130  and  _131
REMARK   59  A    between atoms: _133  and  _135
REMARK   60  A    between atoms: _135  and  _136
REMARK   61  A    between atoms: _135  and  _138
REMARK   62  A    between atoms: _138  and  _139
REMARK   63  A    between atoms: _141  and  _143
REMARK   64  A    between atoms: _143  and  _144
REMARK   65  A    between atoms: _143  and  _146
REMARK   66  A    between atoms: _146  and  _147
REMARK   67  A    between atoms: _147  and  _148
REMARK   68  A    between atoms: _151  and  _153
REMARK   69  A    between atoms: _153  and  _154
REMARK   70  A    between atoms: _153  and  _156
REMARK   71  A    between atoms: _156  and  _157
REMARK   72  A    between atoms: _160  and  _162
REMARK   73  A    between atoms: _162  and  _163
REMARK   74  A    between atoms: _165  and  _167
REMARK   75  A    between atoms: _167  and  _168
REMARK   76  A    between atoms: _167  and  _170
REMARK   77  A    between atoms: _170  and  _171
REMARK   78  A    between atoms: _174  and  _176
REMARK   79  A    between atoms: _185  and  _188
REMARK   80  A    between atoms: _188  and  _189
REMARK   81  A    between atoms: _196  and  _197
REMARK   82  A    between atoms: _203  and  _205
REMARK   83  A    between atoms: _205  and  _206
REMARK   84  A    between atoms: _205  and  _208
REMARK   85  A    between atoms: _208  and  _209
REMARK   86  A    between atoms: _214  and  _215
REMARK   87  A    between atoms: _217  and  _219
REMARK   88  A    between atoms: _219  and  _220
REMARK   89  A    between atoms: _219  and  _222
REMARK   90  A    between atoms: _222  and  _223
REMARK   91  A    between atoms: _223  and  _224
REMARK   92  A    between atoms: _223  and  _225
REMARK   93  A    between atoms: _224  and  CA_258
REMARK   94  A    between atoms: _228  and  _230
REMARK   95  A    between atoms: _230  and  _231
REMARK   96  A    between atoms: _230  and  _233
REMARK   97  A    between atoms: _233  and  _234
REMARK   98  A    between atoms: _237  and  _239
REMARK   99  A    between atoms: _239  and  _240
REMARK  100  A    between atoms: _243  and  _245
REMARK  101  A    between atoms: _245  and  _246
REMARK  102  A    between atoms: _245  and  _248
REMARK  103  A    between atoms: _248  and  _249
REMARK  104  A    between atoms: _252  and  _254
REMARK  105  A    between atoms: _254  and  _255
REMARK                            x       y       z     vdW  Elec       q    Type
REMARK                         _______ _______ _______ _____ _____    ______ ____
ROOT
ATOM      1  O   HOH     1      28.411  26.900  24.564  0.00  0.00    +0.000 OA
ENDROOT
TORSDOF 0
REMARK  Name = ../refined-set-2016/2boj/2boj_pocket.pdb
REMARK  105 active torsions:
REMARK  status: ('A' for Active; 'I' for Inactive)
REMARK    1  A    between atoms: _1  and  _3
REMARK    2  A    between atoms: _3  and  _4
REMARK    3  A    between atoms: _7  and  _9
REMARK    4  A    between atoms: _9  and  _10
REMARK    5  A    between atoms: _9  and  _12
REMARK    6  A    between atoms: _10  and  _11
REMARK    7  A    between atoms: _10  and  _18
REMARK    8  A    between atoms: _11  and  CA_258
REMARK    9  A    between atoms: _12  and  _13
REMARK   10  A    between atoms: _18  and  _20
REMARK   11  A    between atoms: _20  and  _21
REMARK   12  A    between atoms: _20  and  _23
REMARK   13  A    between atoms: _23  and  _24
REMARK   14  A    between atoms: _26  and  _28
REMARK   15  A    between atoms: _28  and  _29
REMARK   16  A    between atoms: _28  and  _31
REMARK   17  A    between atoms: _31  and  _32
REMARK   18  A    between atoms: _34  and  _36
REMARK   19  A    between atoms: _36  and  _37
REMARK   20  A    between atoms: _39  and  _41
REMARK   21  A    between atoms: _41  and  _42
REMARK   22  A    between atoms: _41  and  _44
REMARK   23  A    between atoms: _44  and  _45
REMARK   24  A    between atoms: _48  and  _50
REMARK   25  A    between atoms: _50  and  _51
REMARK   26  A    between atoms: _50  and  _53
REMARK   27  A    between atoms: _53  and  _54
REMARK   28  A    between atoms: _54  and  _55
REMARK   29  A    between atoms: _60  and  _62
REMARK   30  A    between atoms: _62  and  _63
REMARK   31  A    between atoms: _62  and  _65
REMARK   32  A    between atoms: _65  and  _66
REMARK   33  A    between atoms: _66  and  _67
REMARK   34  A    between atoms: _72  and  _74
REMARK   35  A    between atoms: _74  and  _75
REMARK   36  A    between atoms: _74  and  _77
REMARK   37  A    between atoms: _77  and  _78
REMARK   38  A    between atoms: _80  and  _82
REMARK   39  A    between atoms: _82  and  _83
REMARK   40  A    between atoms: _82  and  _85
REMARK   41  A    between atoms: _85  and  _86
REMARK   42  A    between atoms: _89  and  _91
REMARK   43  A    between atoms: _91  and  _92
REMARK   44  A    between atoms: _91  and  _94
REMARK   45  A    between atoms: _94  and  _95
REMARK   46  A    between atoms: _100  and  _102
REMARK   47  A    between atoms: _102  and  _103
REMARK   48  A    between atoms: _102  and  _105
REMARK   49  A    between atoms: _108  and  _110
REMARK   50  A    between atoms: _110  and  _111
REMARK   51  A    between atoms: _110  and  _113
REMARK   52  A    between atoms: _113  and  _114
REMARK   53  A    between atoms: _114  and  _115
REMARK   54  A    between atoms: _115  and  _116
REMARK   55  A    between atoms: _125  and  _127
REMARK   56  A    between atoms: _127  and  _128
REMARK   57  A    between atoms: _127  and  _130
REMARK   58  A    between atoms: _130  and  _131
REMARK   59  A    between atoms: _133  and  _135
REMARK   60  A    between atoms: _135  and  _136
REMARK   61  A    between atoms: _135  and  _138
REMARK   62  A    between atoms: _138  and  _139
REMARK   63  A    between atoms: _141  and  _143
REMARK   64  A    between atoms: _143  and  _144
REMARK   65  A    between atoms: _143  and  _146
REMARK   66  A    between atoms: _146  and  _147
REMARK   67  A    between atoms: _147  and  _148
REMARK   68  A    between atoms: _151  and  _153
REMARK   69  A    between atoms: _153  and  _154
REMARK   70  A    between atoms: _153  and  _156
REMARK   71  A    between atoms: _156  and  _157
REMARK   72  A    between atoms: _160  and  _162
REMARK   73  A    between atoms: _162  and  _163
REMARK   74  A    between atoms: _165  and  _167
REMARK   75  A    between atoms: _167  and  _168
REMARK   76  A    between atoms: _167  and  _170
REMARK   77  A    between atoms: _170  and  _171
REMARK   78  A    between atoms: _174  and  _176
REMARK   79  A    between atoms: _185  and  _188
REMARK   80  A    between atoms: _188  and  _189
REMARK   81  A    between atoms: _196  and  _197
REMARK   82  A    between atoms: _203  and  _205
REMARK   83  A    between atoms: _205  and  _206
REMARK   84  A    between atoms: _205  and  _208
REMARK   85  A    between atoms: _208  and  _209
REMARK   86  A    between atoms: _214  and  _215
REMARK   87  A    between atoms: _217  and  _219
REMARK   88  A    between atoms: _219  and  _220
REMARK   89  A    between atoms: _219  and  _222
REMARK   90  A    between atoms: _222  and  _223
REMARK   91  A    between atoms: _223  and  _224
REMARK   92  A    between atoms: _223  and  _225
REMARK   93  A    between atoms: _224  and  CA_258
REMARK   94  A    between atoms: _228  and  _230
REMARK   95  A    between atoms: _230  and  _231
REMARK   96  A    between atoms: _230  and  _233
REMARK   97  A    between atoms: _233  and  _234
REMARK   98  A    between atoms: _237  and  _239
REMARK   99  A    between atoms: _239  and  _240
REMARK  100  A    between atoms: _243  and  _245
REMARK  101  A    between atoms: _245  and  _246
REMARK  102  A    between atoms: _245  and  _248
REMARK  103  A    between atoms: _248  and  _249
REMARK  104  A    between atoms: _252  and  _254
REMARK  105  A    between atoms: _254  and  _255
REMARK                            x       y       z     vdW  Elec       q    Type
REMARK                         _______ _______ _______ _____ _____    ______ ____
ROOT
ATOM      1  O   HOH     1      24.453  18.291  24.264  0.00  0.00    +0.000 OA
ENDROOT
TORSDOF 0
REMARK  Name = ../refined-set-2016/2boj/2boj_pocket.pdb
REMARK  105 active torsions:
REMARK  status: ('A' for Active; 'I' for Inactive)
REMARK    1  A    between atoms: _1  and  _3
REMARK    2  A    between atoms: _3  and  _4
REMARK    3  A    between atoms: _7  and  _9
REMARK    4  A    between atoms: _9  and  _10
REMARK    5  A    between atoms: _9  and  _12
REMARK    6  A    between atoms: _10  and  _11
REMARK    7  A    between atoms: _10  and  _18
REMARK    8  A    between atoms: _11  and  CA_258
REMARK    9  A    between atoms: _12  and  _13
REMARK   10  A    between atoms: _18  and  _20
REMARK   11  A    between atoms: _20  and  _21
REMARK   12  A    between atoms: _20  and  _23
REMARK   13  A    between atoms: _23  and  _24
REMARK   14  A    between atoms: _26  and  _28
REMARK   15  A    between atoms: _28  and  _29
REMARK   16  A    between atoms: _28  and  _31
REMARK   17  A    between atoms: _31  and  _32
REMARK   18  A    between atoms: _34  and  _36
REMARK   19  A    between atoms: _36  and  _37
REMARK   20  A    between atoms: _39  and  _41
REMARK   21  A    between atoms: _41  and  _42
REMARK   22  A    between atoms: _41  and  _44
REMARK   23  A    between atoms: _44  and  _45
REMARK   24  A    between atoms: _48  and  _50
REMARK   25  A    between atoms: _50  and  _51
REMARK   26  A    between atoms: _50  and  _53
REMARK   27  A    between atoms: _53  and  _54
REMARK   28  A    between atoms: _54  and  _55
REMARK   29  A    between atoms: _60  and  _62
REMARK   30  A    between atoms: _62  and  _63
REMARK   31  A    between atoms: _62  and  _65
REMARK   32  A    between atoms: _65  and  _66
REMARK   33  A    between atoms: _66  and  _67
REMARK   34  A    between atoms: _72  and  _74
REMARK   35  A    between atoms: _74  and  _75
REMARK   36  A    between atoms: _74  and  _77
REMARK   37  A    between atoms: _77  and  _78
REMARK   38  A    between atoms: _80  and  _82
REMARK   39  A    between atoms: _82  and  _83
REMARK   40  A    between atoms: _82  and  _85
REMARK   41  A    between atoms: _85  and  _86
REMARK   42  A    between atoms: _89  and  _91
REMARK   43  A    between atoms: _91  and  _92
REMARK   44  A    between atoms: _91  and  _94
REMARK   45  A    between atoms: _94  and  _95
REMARK   46  A    between atoms: _100  and  _102
REMARK   47  A    between atoms: _102  and  _103
REMARK   48  A    between atoms: _102  and  _105
REMARK   49  A    between atoms: _108  and  _110
REMARK   50  A    between atoms: _110  and  _111
REMARK   51  A    between atoms: _110  and  _113
REMARK   52  A    between atoms: _113  and  _114
REMARK   53  A    between atoms: _114  and  _115
REMARK   54  A    between atoms: _115  and  _116
REMARK   55  A    between atoms: _125  and  _127
REMARK   56  A    between atoms: _127  and  _128
REMARK   57  A    between atoms: _127  and  _130
REMARK   58  A    between atoms: _130  and  _131
REMARK   59  A    between atoms: _133  and  _135
REMARK   60  A    between atoms: _135  and  _136
REMARK   61  A    between atoms: _135  and  _138
REMARK   62  A    between atoms: _138  and  _139
REMARK   63  A    between atoms: _141  and  _143
REMARK   64  A    between atoms: _143  and  _144
REMARK   65  A    between atoms: _143  and  _146
REMARK   66  A    between atoms: _146  and  _147
REMARK   67  A    between atoms: _147  and  _148
REMARK   68  A    between atoms: _151  and  _153
REMARK   69  A    between atoms: _153  and  _154
REMARK   70  A    between atoms: _153  and  _156
REMARK   71  A    between atoms: _156  and  _157
REMARK   72  A    between atoms: _160  and  _162
REMARK   73  A    between atoms: _162  and  _163
REMARK   74  A    between atoms: _165  and  _167
REMARK   75  A    between atoms: _167  and  _168
REMARK   76  A    between atoms: _167  and  _170
REMARK   77  A    between atoms: _170  and  _171
REMARK   78  A    between atoms: _174  and  _176
REMARK   79  A    between atoms: _185  and  _188
REMARK   80  A    between atoms: _188  and  _189
REMARK   81  A    between atoms: _196  and  _197
REMARK   82  A    between atoms: _203  and  _205
REMARK   83  A    between atoms: _205  and  _206
REMARK   84  A    between atoms: _205  and  _208
REMARK   85  A    between atoms: _208  and  _209
REMARK   86  A    between atoms: _214  and  _215
REMARK   87  A    between atoms: _217  and  _219
REMARK   88  A    between atoms: _219  and  _220
REMARK   89  A    between atoms: _219  and  _222
REMARK   90  A    between atoms: _222  and  _223
REMARK   91  A    between atoms: _223  and  _224
REMARK   92  A    between atoms: _223  and  _225
REMARK   93  A    between atoms: _224  and  CA_258
REMARK   94  A    between atoms: _228  and  _230
REMARK   95  A    between atoms: _230  and  _231
REMARK   96  A    between atoms: _230  and  _233
REMARK   97  A    between atoms: _233  and  _234
REMARK   98  A    between atoms: _237  and  _239
REMARK   99  A    between atoms: _239  and  _240
REMARK  100  A    between atoms: _243  and  _245
REMARK  101  A    between atoms: _245  and  _246
REMARK  102  A    between atoms: _245  and  _248
REMARK  103  A    between atoms: _248  and  _249
REMARK  104  A    between atoms: _252  and  _254
REMARK  105  A    between atoms: _254  and  _255
REMARK                            x       y       z     vdW  Elec       q    Type
REMARK                         _______ _______ _______ _____ _____    ______ ____
ROOT
ATOM      1  O   HOH     1      28.553  18.594  26.051  0.00  0.00    +0.000 OA
ENDROOT
TORSDOF 0
REMARK  Name = ../refined-set-2016/2boj/2boj_pocket.pdb
REMARK  105 active torsions:
REMARK  status: ('A' for Active; 'I' for Inactive)
REMARK    1  A    between atoms: _1  and  _3
REMARK    2  A    between atoms: _3  and  _4
REMARK    3  A    between atoms: _7  and  _9
REMARK    4  A    between atoms: _9  and  _10
REMARK    5  A    between atoms: _9  and  _12
REMARK    6  A    between atoms: _10  and  _11
REMARK    7  A    between atoms: _10  and  _18
REMARK    8  A    between atoms: _11  and  CA_258
REMARK    9  A    between atoms: _12  and  _13
REMARK   10  A    between atoms: _18  and  _20
REMARK   11  A    between atoms: _20  and  _21
REMARK   12  A    between atoms: _20  and  _23
REMARK   13  A    between atoms: _23  and  _24
REMARK   14  A    between atoms: _26  and  _28
REMARK   15  A    between atoms: _28  and  _29
REMARK   16  A    between atoms: _28  and  _31
REMARK   17  A    between atoms: _31  and  _32
REMARK   18  A    between atoms: _34  and  _36
REMARK   19  A    between atoms: _36  and  _37
REMARK   20  A    between atoms: _39  and  _41
REMARK   21  A    between atoms: _41  and  _42
REMARK   22  A    between atoms: _41  and  _44
REMARK   23  A    between atoms: _44  and  _45
REMARK   24  A    between atoms: _48  and  _50
REMARK   25  A    between atoms: _50  and  _51
REMARK   26  A    between atoms: _50  and  _53
REMARK   27  A    between atoms: _53  and  _54
REMARK   28  A    between atoms: _54  and  _55
REMARK   29  A    between atoms: _60  and  _62
REMARK   30  A    between atoms: _62  and  _63
REMARK   31  A    between atoms: _62  and  _65
REMARK   32  A    between atoms: _65  and  _66
REMARK   33  A    between atoms: _66  and  _67
REMARK   34  A    between atoms: _72  and  _74
REMARK   35  A    between atoms: _74  and  _75
REMARK   36  A    between atoms: _74  and  _77
REMARK   37  A    between atoms: _77  and  _78
REMARK   38  A    between atoms: _80  and  _82
REMARK   39  A    between atoms: _82  and  _83
REMARK   40  A    between atoms: _82  and  _85
REMARK   41  A    between atoms: _85  and  _86
REMARK   42  A    between atoms: _89  and  _91
REMARK   43  A    between atoms: _91  and  _92
REMARK   44  A    between atoms: _91  and  _94
REMARK   45  A    between atoms: _94  and  _95
REMARK   46  A    between atoms: _100  and  _102
REMARK   47  A    between atoms: _102  and  _103
REMARK   48  A    between atoms: _102  and  _105
REMARK   49  A    between atoms: _108  and  _110
REMARK   50  A    between atoms: _110  and  _111
REMARK   51  A    between atoms: _110  and  _113
REMARK   52  A    between atoms: _113  and  _114
REMARK   53  A    between atoms: _114  and  _115
REMARK   54  A    between atoms: _115  and  _116
REMARK   55  A    between atoms: _125  and  _127
REMARK   56  A    between atoms: _127  and  _128
REMARK   57  A    between atoms: _127  and  _130
REMARK   58  A    between atoms: _130  and  _131
REMARK   59  A    between atoms: _133  and  _135
REMARK   60  A    between atoms: _135  and  _136
REMARK   61  A    between atoms: _135  and  _138
REMARK   62  A    between atoms: _138  and  _139
REMARK   63  A    between atoms: _141  and  _143
REMARK   64  A    between atoms: _143  and  _144
REMARK   65  A    between atoms: _143  and  _146
REMARK   66  A    between atoms: _146  and  _147
REMARK   67  A    between atoms: _147  and  _148
REMARK   68  A    between atoms: _151  and  _153
REMARK   69  A    between atoms: _153  and  _154
REMARK   70  A    between atoms: _153  and  _156
REMARK   71  A    between atoms: _156  and  _157
REMARK   72  A    between atoms: _160  and  _162
REMARK   73  A    between atoms: _162  and  _163
REMARK   74  A    between atoms: _165  and  _167
REMARK   75  A    between atoms: _167  and  _168
REMARK   76  A    between atoms: _167  and  _170
REMARK   77  A    between atoms: _170  and  _171
REMARK   78  A    between atoms: _174  and  _176
REMARK   79  A    between atoms: _185  and  _188
REMARK   80  A    between atoms: _188  and  _189
REMARK   81  A    between atoms: _196  and  _197
REMARK   82  A    between atoms: _203  and  _205
REMARK   83  A    between atoms: _205  and  _206
REMARK   84  A    between atoms: _205  and  _208
REMARK   85  A    between atoms: _208  and  _209
REMARK   86  A    between atoms: _214  and  _215
REMARK   87  A    between atoms: _217  and  _219
REMARK   88  A    between atoms: _219  and  _220
REMARK   89  A    between atoms: _219  and  _222
REMARK   90  A    between atoms: _222  and  _223
REMARK   91  A    between atoms: _223  and  _224
REMARK   92  A    between atoms: _223  and  _225
REMARK   93  A    between atoms: _224  and  CA_258
REMARK   94  A    between atoms: _228  and  _230
REMARK   95  A    between atoms: _230  and  _231
REMARK   96  A    between atoms: _230  and  _233
REMARK   97  A    between atoms: _233  and  _234
REMARK   98  A    between atoms: _237  and  _239
REMARK   99  A    between atoms: _239  and  _240
REMARK  100  A    between atoms: _243  and  _245
REMARK  101  A    between atoms: _245  and  _246
REMARK  102  A    between atoms: _245  and  _248
REMARK  103  A    between atoms: _248  and  _249
REMARK  104  A    between atoms: _252  and  _254
REMARK  105  A    between atoms: _254  and  _255
REMARK                            x       y       z     vdW  Elec       q    Type
REMARK                         _______ _______ _______ _____ _____    ______ ____
ROOT
ATOM      1  O   HOH     1      24.396  21.569  26.753  0.00  0.00    +0.000 OA
ENDROOT
TORSDOF 0
REMARK  Name = ../refined-set-2016/2boj/2boj_pocket.pdb
REMARK  105 active torsions:
REMARK  status: ('A' for Active; 'I' for Inactive)
REMARK    1  A    between atoms: _1  and  _3
REMARK    2  A    between atoms: _3  and  _4
REMARK    3  A    between atoms: _7  and  _9
REMARK    4  A    between atoms: _9  and  _10
REMARK    5  A    between atoms: _9  and  _12
REMARK    6  A    between atoms: _10  and  _11
REMARK    7  A    between atoms: _10  and  _18
REMARK    8  A    between atoms: _11  and  CA_258
REMARK    9  A    between atoms: _12  and  _13
REMARK   10  A    between atoms: _18  and  _20
REMARK   11  A    between atoms: _20  and  _21
REMARK   12  A    between atoms: _20  and  _23
REMARK   13  A    between atoms: _23  and  _24
REMARK   14  A    between atoms: _26  and  _28
REMARK   15  A    between atoms: _28  and  _29
REMARK   16  A    between atoms: _28  and  _31
REMARK   17  A    between atoms: _31  and  _32
REMARK   18  A    between atoms: _34  and  _36
REMARK   19  A    between atoms: _36  and  _37
REMARK   20  A    between atoms: _39  and  _41
REMARK   21  A    between atoms: _41  and  _42
REMARK   22  A    between atoms: _41  and  _44
REMARK   23  A    between atoms: _44  and  _45
REMARK   24  A    between atoms: _48  and  _50
REMARK   25  A    between atoms: _50  and  _51
REMARK   26  A    between atoms: _50  and  _53
REMARK   27  A    between atoms: _53  and  _54
REMARK   28  A    between atoms: _54  and  _55
REMARK   29  A    between atoms: _60  and  _62
REMARK   30  A    between atoms: _62  and  _63
REMARK   31  A    between atoms: _62  and  _65
REMARK   32  A    between atoms: _65  and  _66
REMARK   33  A    between atoms: _66  and  _67
REMARK   34  A    between atoms: _72  and  _74
REMARK   35  A    between atoms: _74  and  _75
REMARK   36  A    between atoms: _74  and  _77
REMARK   37  A    between atoms: _77  and  _78
REMARK   38  A    between atoms: _80  and  _82
REMARK   39  A    between atoms: _82  and  _83
REMARK   40  A    between atoms: _82  and  _85
REMARK   41  A    between atoms: _85  and  _86
REMARK   42  A    between atoms: _89  and  _91
REMARK   43  A    between atoms: _91  and  _92
REMARK   44  A    between atoms: _91  and  _94
REMARK   45  A    between atoms: _94  and  _95
REMARK   46  A    between atoms: _100  and  _102
REMARK   47  A    between atoms: _102  and  _103
REMARK   48  A    between atoms: _102  and  _105
REMARK   49  A    between atoms: _108  and  _110
REMARK   50  A    between atoms: _110  and  _111
REMARK   51  A    between atoms: _110  and  _113
REMARK   52  A    between atoms: _113  and  _114
REMARK   53  A    between atoms: _114  and  _115
REMARK   54  A    between atoms: _115  and  _116
REMARK   55  A    between atoms: _125  and  _127
REMARK   56  A    between atoms: _127  and  _128
REMARK   57  A    between atoms: _127  and  _130
REMARK   58  A    between atoms: _130  and  _131
REMARK   59  A    between atoms: _133  and  _135
REMARK   60  A    between atoms: _135  and  _136
REMARK   61  A    between atoms: _135  and  _138
REMARK   62  A    between atoms: _138  and  _139
REMARK   63  A    between atoms: _141  and  _143
REMARK   64  A    between atoms: _143  and  _144
REMARK   65  A    between atoms: _143  and  _146
REMARK   66  A    between atoms: _146  and  _147
REMARK   67  A    between atoms: _147  and  _148
REMARK   68  A    between atoms: _151  and  _153
REMARK   69  A    between atoms: _153  and  _154
REMARK   70  A    between atoms: _153  and  _156
REMARK   71  A    between atoms: _156  and  _157
REMARK   72  A    between atoms: _160  and  _162
REMARK   73  A    between atoms: _162  and  _163
REMARK   74  A    between atoms: _165  and  _167
REMARK   75  A    between atoms: _167  and  _168
REMARK   76  A    between atoms: _167  and  _170
REMARK   77  A    between atoms: _170  and  _171
REMARK   78  A    between atoms: _174  and  _176
REMARK   79  A    between atoms: _185  and  _188
REMARK   80  A    between atoms: _188  and  _189
REMARK   81  A    between atoms: _196  and  _197
REMARK   82  A    between atoms: _203  and  _205
REMARK   83  A    between atoms: _205  and  _206
REMARK   84  A    between atoms: _205  and  _208
REMARK   85  A    between atoms: _208  and  _209
REMARK   86  A    between atoms: _214  and  _215
REMARK   87  A    between atoms: _217  and  _219
REMARK   88  A    between atoms: _219  and  _220
REMARK   89  A    between atoms: _219  and  _222
REMARK   90  A    between atoms: _222  and  _223
REMARK   91  A    between atoms: _223  and  _224
REMARK   92  A    between atoms: _223  and  _225
REMARK   93  A    between atoms: _224  and  CA_258
REMARK   94  A    between atoms: _228  and  _230
REMARK   95  A    between atoms: _230  and  _231
REMARK   96  A    between atoms: _230  and  _233
REMARK   97  A    between atoms: _233  and  _234
REMARK   98  A    between atoms: _237  and  _239
REMARK   99  A    between atoms: _239  and  _240
REMARK  100  A    between atoms: _243  and  _245
REMARK  101  A    between atoms: _245  and  _246
REMARK  102  A    between atoms: _245  and  _248
REMARK  103  A    between atoms: _248  and  _249
REMARK  104  A    between atoms: _252  and  _254
REMARK  105  A    between atoms: _254  and  _255
REMARK                            x       y       z     vdW  Elec       q    Type
REMARK                         _______ _______ _______ _____ _____    ______ ____
ROOT
ATOM      1  O   HOH     1      19.082  19.106  26.341  0.00  0.00    +0.000 OA
ENDROOT
TORSDOF 0
REMARK  Name = ../refined-set-2016/2boj/2boj_pocket.pdb
REMARK  105 active torsions:
REMARK  status: ('A' for Active; 'I' for Inactive)
REMARK    1  A    between atoms: _1  and  _3
REMARK    2  A    between atoms: _3  and  _4
REMARK    3  A    between atoms: _7  and  _9
REMARK    4  A    between atoms: _9  and  _10
REMARK    5  A    between atoms: _9  and  _12
REMARK    6  A    between atoms: _10  and  _11
REMARK    7  A    between atoms: _10  and  _18
REMARK    8  A    between atoms: _11  and  CA_258
REMARK    9  A    between atoms: _12  and  _13
REMARK   10  A    between atoms: _18  and  _20
REMARK   11  A    between atoms: _20  and  _21
REMARK   12  A    between atoms: _20  and  _23
REMARK   13  A    between atoms: _23  and  _24
REMARK   14  A    between atoms: _26  and  _28
REMARK   15  A    between atoms: _28  and  _29
REMARK   16  A    between atoms: _28  and  _31
REMARK   17  A    between atoms: _31  and  _32
REMARK   18  A    between atoms: _34  and  _36
REMARK   19  A    between atoms: _36  and  _37
REMARK   20  A    between atoms: _39  and  _41
REMARK   21  A    between atoms: _41  and  _42
REMARK   22  A    between atoms: _41  and  _44
REMARK   23  A    between atoms: _44  and  _45
REMARK   24  A    between atoms: _48  and  _50
REMARK   25  A    between atoms: _50  and  _51
REMARK   26  A    between atoms: _50  and  _53
REMARK   27  A    between atoms: _53  and  _54
REMARK   28  A    between atoms: _54  and  _55
REMARK   29  A    between atoms: _60  and  _62
REMARK   30  A    between atoms: _62  and  _63
REMARK   31  A    between atoms: _62  and  _65
REMARK   32  A    between atoms: _65  and  _66
REMARK   33  A    between atoms: _66  and  _67
REMARK   34  A    between atoms: _72  and  _74
REMARK   35  A    between atoms: _74  and  _75
REMARK   36  A    between atoms: _74  and  _77
REMARK   37  A    between atoms: _77  and  _78
REMARK   38  A    between atoms: _80  and  _82
REMARK   39  A    between atoms: _82  and  _83
REMARK   40  A    between atoms: _82  and  _85
REMARK   41  A    between atoms: _85  and  _86
REMARK   42  A    between atoms: _89  and  _91
REMARK   43  A    between atoms: _91  and  _92
REMARK   44  A    between atoms: _91  and  _94
REMARK   45  A    between atoms: _94  and  _95
REMARK   46  A    between atoms: _100  and  _102
REMARK   47  A    between atoms: _102  and  _103
REMARK   48  A    between atoms: _102  and  _105
REMARK   49  A    between atoms: _108  and  _110
REMARK   50  A    between atoms: _110  and  _111
REMARK   51  A    between atoms: _110  and  _113
REMARK   52  A    between atoms: _113  and  _114
REMARK   53  A    between atoms: _114  and  _115
REMARK   54  A    between atoms: _115  and  _116
REMARK   55  A    between atoms: _125  and  _127
REMARK   56  A    between atoms: _127  and  _128
REMARK   57  A    between atoms: _127  and  _130
REMARK   58  A    between atoms: _130  and  _131
REMARK   59  A    between atoms: _133  and  _135
REMARK   60  A    between atoms: _135  and  _136
REMARK   61  A    between atoms: _135  and  _138
REMARK   62  A    between atoms: _138  and  _139
REMARK   63  A    between atoms: _141  and  _143
REMARK   64  A    between atoms: _143  and  _144
REMARK   65  A    between atoms: _143  and  _146
REMARK   66  A    between atoms: _146  and  _147
REMARK   67  A    between atoms: _147  and  _148
REMARK   68  A    between atoms: _151  and  _153
REMARK   69  A    between atoms: _153  and  _154
REMARK   70  A    between atoms: _153  and  _156
REMARK   71  A    between atoms: _156  and  _157
REMARK   72  A    between atoms: _160  and  _162
REMARK   73  A    between atoms: _162  and  _163
REMARK   74  A    between atoms: _165  and  _167
REMARK   75  A    between atoms: _167  and  _168
REMARK   76  A    between atoms: _167  and  _170
REMARK   77  A    between atoms: _170  and  _171
REMARK   78  A    between atoms: _174  and  _176
REMARK   79  A    between atoms: _185  and  _188
REMARK   80  A    between atoms: _188  and  _189
REMARK   81  A    between atoms: _196  and  _197
REMARK   82  A    between atoms: _203  and  _205
REMARK   83  A    between atoms: _205  and  _206
REMARK   84  A    between atoms: _205  and  _208
REMARK   85  A    between atoms: _208  and  _209
REMARK   86  A    between atoms: _214  and  _215
REMARK   87  A    between atoms: _217  and  _219
REMARK   88  A    between atoms: _219  and  _220
REMARK   89  A    between atoms: _219  and  _222
REMARK   90  A    between atoms: _222  and  _223
REMARK   91  A    between atoms: _223  and  _224
REMARK   92  A    between atoms: _223  and  _225
REMARK   93  A    between atoms: _224  and  CA_258
REMARK   94  A    between atoms: _228  and  _230
REMARK   95  A    between atoms: _230  and  _231
REMARK   96  A    between atoms: _230  and  _233
REMARK   97  A    between atoms: _233  and  _234
REMARK   98  A    between atoms: _237  and  _239
REMARK   99  A    between atoms: _239  and  _240
REMARK  100  A    between atoms: _243  and  _245
REMARK  101  A    between atoms: _245  and  _246
REMARK  102  A    between atoms: _245  and  _248
REMARK  103  A    between atoms: _248  and  _249
REMARK  104  A    between atoms: _252  and  _254
REMARK  105  A    between atoms: _254  and  _255
REMARK                            x       y       z     vdW  Elec       q    Type
REMARK                         _______ _______ _______ _____ _____    ______ ____
ROOT
ATOM      1  O   HOH     1      24.919  24.601  21.796  0.00  0.00    +0.000 OA
ENDROOT
TORSDOF 0
REMARK  Name = ../refined-set-2016/2boj/2boj_pocket.pdb
REMARK  105 active torsions:
REMARK  status: ('A' for Active; 'I' for Inactive)
REMARK    1  A    between atoms: _1  and  _3
REMARK    2  A    between atoms: _3  and  _4
REMARK    3  A    between atoms: _7  and  _9
REMARK    4  A    between atoms: _9  and  _10
REMARK    5  A    between atoms: _9  and  _12
REMARK    6  A    between atoms: _10  and  _11
REMARK    7  A    between atoms: _10  and  _18
REMARK    8  A    between atoms: _11  and  CA_258
REMARK    9  A    between atoms: _12  and  _13
REMARK   10  A    between atoms: _18  and  _20
REMARK   11  A    between atoms: _20  and  _21
REMARK   12  A    between atoms: _20  and  _23
REMARK   13  A    between atoms: _23  and  _24
REMARK   14  A    between atoms: _26  and  _28
REMARK   15  A    between atoms: _28  and  _29
REMARK   16  A    between atoms: _28  and  _31
REMARK   17  A    between atoms: _31  and  _32
REMARK   18  A    between atoms: _34  and  _36
REMARK   19  A    between atoms: _36  and  _37
REMARK   20  A    between atoms: _39  and  _41
REMARK   21  A    between atoms: _41  and  _42
REMARK   22  A    between atoms: _41  and  _44
REMARK   23  A    between atoms: _44  and  _45
REMARK   24  A    between atoms: _48  and  _50
REMARK   25  A    between atoms: _50  and  _51
REMARK   26  A    between atoms: _50  and  _53
REMARK   27  A    between atoms: _53  and  _54
REMARK   28  A    between atoms: _54  and  _55
REMARK   29  A    between atoms: _60  and  _62
REMARK   30  A    between atoms: _62  and  _63
REMARK   31  A    between atoms: _62  and  _65
REMARK   32  A    between atoms: _65  and  _66
REMARK   33  A    between atoms: _66  and  _67
REMARK   34  A    between atoms: _72  and  _74
REMARK   35  A    between atoms: _74  and  _75
REMARK   36  A    between atoms: _74  and  _77
REMARK   37  A    between atoms: _77  and  _78
REMARK   38  A    between atoms: _80  and  _82
REMARK   39  A    between atoms: _82  and  _83
REMARK   40  A    between atoms: _82  and  _85
REMARK   41  A    between atoms: _85  and  _86
REMARK   42  A    between atoms: _89  and  _91
REMARK   43  A    between atoms: _91  and  _92
REMARK   44  A    between atoms: _91  and  _94
REMARK   45  A    between atoms: _94  and  _95
REMARK   46  A    between atoms: _100  and  _102
REMARK   47  A    between atoms: _102  and  _103
REMARK   48  A    between atoms: _102  and  _105
REMARK   49  A    between atoms: _108  and  _110
REMARK   50  A    between atoms: _110  and  _111
REMARK   51  A    between atoms: _110  and  _113
REMARK   52  A    between atoms: _113  and  _114
REMARK   53  A    between atoms: _114  and  _115
REMARK   54  A    between atoms: _115  and  _116
REMARK   55  A    between atoms: _125  and  _127
REMARK   56  A    between atoms: _127  and  _128
REMARK   57  A    between atoms: _127  and  _130
REMARK   58  A    between atoms: _130  and  _131
REMARK   59  A    between atoms: _133  and  _135
REMARK   60  A    between atoms: _135  and  _136
REMARK   61  A    between atoms: _135  and  _138
REMARK   62  A    between atoms: _138  and  _139
REMARK   63  A    between atoms: _141  and  _143
REMARK   64  A    between atoms: _143  and  _144
REMARK   65  A    between atoms: _143  and  _146
REMARK   66  A    between atoms: _146  and  _147
REMARK   67  A    between atoms: _147  and  _148
REMARK   68  A    between atoms: _151  and  _153
REMARK   69  A    between atoms: _153  and  _154
REMARK   70  A    between atoms: _153  and  _156
REMARK   71  A    between atoms: _156  and  _157
REMARK   72  A    between atoms: _160  and  _162
REMARK   73  A    between atoms: _162  and  _163
REMARK   74  A    between atoms: _165  and  _167
REMARK   75  A    between atoms: _167  and  _168
REMARK   76  A    between atoms: _167  and  _170
REMARK   77  A    between atoms: _170  and  _171
REMARK   78  A    between atoms: _174  and  _176
REMARK   79  A    between atoms: _185  and  _188
REMARK   80  A    between atoms: _188  and  _189
REMARK   81  A    between atoms: _196  and  _197
REMARK   82  A    between atoms: _203  and  _205
REMARK   83  A    between atoms: _205  and  _206
REMARK   84  A    between atoms: _205  and  _208
REMARK   85  A    between atoms: _208  and  _209
REMARK   86  A    between atoms: _214  and  _215
REMARK   87  A    between atoms: _217  and  _219
REMARK   88  A    between atoms: _219  and  _220
REMARK   89  A    between atoms: _219  and  _222
REMARK   90  A    between atoms: _222  and  _223
REMARK   91  A    between atoms: _223  and  _224
REMARK   92  A    between atoms: _223  and  _225
REMARK   93  A    between atoms: _224  and  CA_258
REMARK   94  A    between atoms: _228  and  _230
REMARK   95  A    between atoms: _230  and  _231
REMARK   96  A    between atoms: _230  and  _233
REMARK   97  A    between atoms: _233  and  _234
REMARK   98  A    between atoms: _237  and  _239
REMARK   99  A    between atoms: _239  and  _240
REMARK  100  A    between atoms: _243  and  _245
REMARK  101  A    between atoms: _245  and  _246
REMARK  102  A    between atoms: _245  and  _248
REMARK  103  A    between atoms: _248  and  _249
REMARK  104  A    between atoms: _252  and  _254
REMARK  105  A    between atoms: _254  and  _255
REMARK                            x       y       z     vdW  Elec       q    Type
REMARK                         _______ _______ _______ _____ _____    ______ ____
ROOT
ATOM      1  O   HOH     1      15.214  25.184  21.840  0.00  0.00    +0.000 OA
ENDROOT
TORSDOF 0
REMARK  Name = ../refined-set-2016/2boj/2boj_pocket.pdb
REMARK  105 active torsions:
REMARK  status: ('A' for Active; 'I' for Inactive)
REMARK    1  A    between atoms: _1  and  _3
REMARK    2  A    between atoms: _3  and  _4
REMARK    3  A    between atoms: _7  and  _9
REMARK    4  A    between atoms: _9  and  _10
REMARK    5  A    between atoms: _9  and  _12
REMARK    6  A    between atoms: _10  and  _11
REMARK    7  A    between atoms: _10  and  _18
REMARK    8  A    between atoms: _11  and  CA_258
REMARK    9  A    between atoms: _12  and  _13
REMARK   10  A    between atoms: _18  and  _20
REMARK   11  A    between atoms: _20  and  _21
REMARK   12  A    between atoms: _20  and  _23
REMARK   13  A    between atoms: _23  and  _24
REMARK   14  A    between atoms: _26  and  _28
REMARK   15  A    between atoms: _28  and  _29
REMARK   16  A    between atoms: _28  and  _31
REMARK   17  A    between atoms: _31  and  _32
REMARK   18  A    between atoms: _34  and  _36
REMARK   19  A    between atoms: _36  and  _37
REMARK   20  A    between atoms: _39  and  _41
REMARK   21  A    between atoms: _41  and  _42
REMARK   22  A    between atoms: _41  and  _44
REMARK   23  A    between atoms: _44  and  _45
REMARK   24  A    between atoms: _48  and  _50
REMARK   25  A    between atoms: _50  and  _51
REMARK   26  A    between atoms: _50  and  _53
REMARK   27  A    between atoms: _53  and  _54
REMARK   28  A    between atoms: _54  and  _55
REMARK   29  A    between atoms: _60  and  _62
REMARK   30  A    between atoms: _62  and  _63
REMARK   31  A    between atoms: _62  and  _65
REMARK   32  A    between atoms: _65  and  _66
REMARK   33  A    between atoms: _66  and  _67
REMARK   34  A    between atoms: _72  and  _74
REMARK   35  A    between atoms: _74  and  _75
REMARK   36  A    between atoms: _74  and  _77
REMARK   37  A    between atoms: _77  and  _78
REMARK   38  A    between atoms: _80  and  _82
REMARK   39  A    between atoms: _82  and  _83
REMARK   40  A    between atoms: _82  and  _85
REMARK   41  A    between atoms: _85  and  _86
REMARK   42  A    between atoms: _89  and  _91
REMARK   43  A    between atoms: _91  and  _92
REMARK   44  A    between atoms: _91  and  _94
REMARK   45  A    between atoms: _94  and  _95
REMARK   46  A    between atoms: _100  and  _102
REMARK   47  A    between atoms: _102  and  _103
REMARK   48  A    between atoms: _102  and  _105
REMARK   49  A    between atoms: _108  and  _110
REMARK   50  A    between atoms: _110  and  _111
REMARK   51  A    between atoms: _110  and  _113
REMARK   52  A    between atoms: _113  and  _114
REMARK   53  A    between atoms: _114  and  _115
REMARK   54  A    between atoms: _115  and  _116
REMARK   55  A    between atoms: _125  and  _127
REMARK   56  A    between atoms: _127  and  _128
REMARK   57  A    between atoms: _127  and  _130
REMARK   58  A    between atoms: _130  and  _131
REMARK   59  A    between atoms: _133  and  _135
REMARK   60  A    between atoms: _135  and  _136
REMARK   61  A    between atoms: _135  and  _138
REMARK   62  A    between atoms: _138  and  _139
REMARK   63  A    between atoms: _141  and  _143
REMARK   64  A    between atoms: _143  and  _144
REMARK   65  A    between atoms: _143  and  _146
REMARK   66  A    between atoms: _146  and  _147
REMARK   67  A    between atoms: _147  and  _148
REMARK   68  A    between atoms: _151  and  _153
REMARK   69  A    between atoms: _153  and  _154
REMARK   70  A    between atoms: _153  and  _156
REMARK   71  A    between atoms: _156  and  _157
REMARK   72  A    between atoms: _160  and  _162
REMARK   73  A    between atoms: _162  and  _163
REMARK   74  A    between atoms: _165  and  _167
REMARK   75  A    between atoms: _167  and  _168
REMARK   76  A    between atoms: _167  and  _170
REMARK   77  A    between atoms: _170  and  _171
REMARK   78  A    between atoms: _174  and  _176
REMARK   79  A    between atoms: _185  and  _188
REMARK   80  A    between atoms: _188  and  _189
REMARK   81  A    between atoms: _196  and  _197
REMARK   82  A    between atoms: _203  and  _205
REMARK   83  A    between atoms: _205  and  _206
REMARK   84  A    between atoms: _205  and  _208
REMARK   85  A    between atoms: _208  and  _209
REMARK   86  A    between atoms: _214  and  _215
REMARK   87  A    between atoms: _217  and  _219
REMARK   88  A    between atoms: _219  and  _220
REMARK   89  A    between atoms: _219  and  _222
REMARK   90  A    between atoms: _222  and  _223
REMARK   91  A    between atoms: _223  and  _224
REMARK   92  A    between atoms: _223  and  _225
REMARK   93  A    between atoms: _224  and  CA_258
REMARK   94  A    between atoms: _228  and  _230
REMARK   95  A    between atoms: _230  and  _231
REMARK   96  A    between atoms: _230  and  _233
REMARK   97  A    between atoms: _233  and  _234
REMARK   98  A    between atoms: _237  and  _239
REMARK   99  A    between atoms: _239  and  _240
REMARK  100  A    between atoms: _243  and  _245
REMARK  101  A    between atoms: _245  and  _246
REMARK  102  A    between atoms: _245  and  _248
REMARK  103  A    between atoms: _248  and  _249
REMARK  104  A    between atoms: _252  and  _254
REMARK  105  A    between atoms: _254  and  _255
REMARK                            x       y       z     vdW  Elec       q    Type
REMARK                         _______ _______ _______ _____ _____    ______ ____
ROOT
ATOM      1  O   HOH     1      15.408  21.644  25.671  0.00  0.00    +0.000 OA
ENDROOT
TORSDOF 0
REMARK  Name = ../refined-set-2016/2boj/2boj_pocket.pdb
REMARK  105 active torsions:
REMARK  status: ('A' for Active; 'I' for Inactive)
REMARK    1  A    between atoms: _1  and  _3
REMARK    2  A    between atoms: _3  and  _4
REMARK    3  A    between atoms: _7  and  _9
REMARK    4  A    between atoms: _9  and  _10
REMARK    5  A    between atoms: _9  and  _12
REMARK    6  A    between atoms: _10  and  _11
REMARK    7  A    between atoms: _10  and  _18
REMARK    8  A    between atoms: _11  and  CA_258
REMARK    9  A    between atoms: _12  and  _13
REMARK   10  A    between atoms: _18  and  _20
REMARK   11  A    between atoms: _20  and  _21
REMARK   12  A    between atoms: _20  and  _23
REMARK   13  A    between atoms: _23  and  _24
REMARK   14  A    between atoms: _26  and  _28
REMARK   15  A    between atoms: _28  and  _29
REMARK   16  A    between atoms: _28  and  _31
REMARK   17  A    between atoms: _31  and  _32
REMARK   18  A    between atoms: _34  and  _36
REMARK   19  A    between atoms: _36  and  _37
REMARK   20  A    between atoms: _39  and  _41
REMARK   21  A    between atoms: _41  and  _42
REMARK   22  A    between atoms: _41  and  _44
REMARK   23  A    between atoms: _44  and  _45
REMARK   24  A    between atoms: _48  and  _50
REMARK   25  A    between atoms: _50  and  _51
REMARK   26  A    between atoms: _50  and  _53
REMARK   27  A    between atoms: _53  and  _54
REMARK   28  A    between atoms: _54  and  _55
REMARK   29  A    between atoms: _60  and  _62
REMARK   30  A    between atoms: _62  and  _63
REMARK   31  A    between atoms: _62  and  _65
REMARK   32  A    between atoms: _65  and  _66
REMARK   33  A    between atoms: _66  and  _67
REMARK   34  A    between atoms: _72  and  _74
REMARK   35  A    between atoms: _74  and  _75
REMARK   36  A    between atoms: _74  and  _77
REMARK   37  A    between atoms: _77  and  _78
REMARK   38  A    between atoms: _80  and  _82
REMARK   39  A    between atoms: _82  and  _83
REMARK   40  A    between atoms: _82  and  _85
REMARK   41  A    between atoms: _85  and  _86
REMARK   42  A    between atoms: _89  and  _91
REMARK   43  A    between atoms: _91  and  _92
REMARK   44  A    between atoms: _91  and  _94
REMARK   45  A    between atoms: _94  and  _95
REMARK   46  A    between atoms: _100  and  _102
REMARK   47  A    between atoms: _102  and  _103
REMARK   48  A    between atoms: _102  and  _105
REMARK   49  A    between atoms: _108  and  _110
REMARK   50  A    between atoms: _110  and  _111
REMARK   51  A    between atoms: _110  and  _113
REMARK   52  A    between atoms: _113  and  _114
REMARK   53  A    between atoms: _114  and  _115
REMARK   54  A    between atoms: _115  and  _116
REMARK   55  A    between atoms: _125  and  _127
REMARK   56  A    between atoms: _127  and  _128
REMARK   57  A    between atoms: _127  and  _130
REMARK   58  A    between atoms: _130  and  _131
REMARK   59  A    between atoms: _133  and  _135
REMARK   60  A    between atoms: _135  and  _136
REMARK   61  A    between atoms: _135  and  _138
REMARK   62  A    between atoms: _138  and  _139
REMARK   63  A    between atoms: _141  and  _143
REMARK   64  A    between atoms: _143  and  _144
REMARK   65  A    between atoms: _143  and  _146
REMARK   66  A    between atoms: _146  and  _147
REMARK   67  A    between atoms: _147  and  _148
REMARK   68  A    between atoms: _151  and  _153
REMARK   69  A    between atoms: _153  and  _154
REMARK   70  A    between atoms: _153  and  _156
REMARK   71  A    between atoms: _156  and  _157
REMARK   72  A    between atoms: _160  and  _162
REMARK   73  A    between atoms: _162  and  _163
REMARK   74  A    between atoms: _165  and  _167
REMARK   75  A    between atoms: _167  and  _168
REMARK   76  A    between atoms: _167  and  _170
REMARK   77  A    between atoms: _170  and  _171
REMARK   78  A    between atoms: _174  and  _176
REMARK   79  A    between atoms: _185  and  _188
REMARK   80  A    between atoms: _188  and  _189
REMARK   81  A    between atoms: _196  and  _197
REMARK   82  A    between atoms: _203  and  _205
REMARK   83  A    between atoms: _205  and  _206
REMARK   84  A    between atoms: _205  and  _208
REMARK   85  A    between atoms: _208  and  _209
REMARK   86  A    between atoms: _214  and  _215
REMARK   87  A    between atoms: _217  and  _219
REMARK   88  A    between atoms: _219  and  _220
REMARK   89  A    between atoms: _219  and  _222
REMARK   90  A    between atoms: _222  and  _223
REMARK   91  A    between atoms: _223  and  _224
REMARK   92  A    between atoms: _223  and  _225
REMARK   93  A    between atoms: _224  and  CA_258
REMARK   94  A    between atoms: _228  and  _230
REMARK   95  A    between atoms: _230  and  _231
REMARK   96  A    between atoms: _230  and  _233
REMARK   97  A    between atoms: _233  and  _234
REMARK   98  A    between atoms: _237  and  _239
REMARK   99  A    between atoms: _239  and  _240
REMARK  100  A    between atoms: _243  and  _245
REMARK  101  A    between atoms: _245  and  _246
REMARK  102  A    between atoms: _245  and  _248
REMARK  103  A    between atoms: _248  and  _249
REMARK  104  A    between atoms: _252  and  _254
REMARK  105  A    between atoms: _254  and  _255
REMARK                            x       y       z     vdW  Elec       q    Type
REMARK                         _______ _______ _______ _____ _____    ______ ____
ROOT
ATOM      1  O   HOH     1      12.347  19.405  32.078  0.00  0.00    +0.000 OA
ENDROOT
TORSDOF 0
REMARK  Name = ../refined-set-2016/2boj/2boj_pocket.pdb
REMARK  105 active torsions:
REMARK  status: ('A' for Active; 'I' for Inactive)
REMARK    1  A    between atoms: _1  and  _3
REMARK    2  A    between atoms: _3  and  _4
REMARK    3  A    between atoms: _7  and  _9
REMARK    4  A    between atoms: _9  and  _10
REMARK    5  A    between atoms: _9  and  _12
REMARK    6  A    between atoms: _10  and  _11
REMARK    7  A    between atoms: _10  and  _18
REMARK    8  A    between atoms: _11  and  CA_258
REMARK    9  A    between atoms: _12  and  _13
REMARK   10  A    between atoms: _18  and  _20
REMARK   11  A    between atoms: _20  and  _21
REMARK   12  A    between atoms: _20  and  _23
REMARK   13  A    between atoms: _23  and  _24
REMARK   14  A    between atoms: _26  and  _28
REMARK   15  A    between atoms: _28  and  _29
REMARK   16  A    between atoms: _28  and  _31
REMARK   17  A    between atoms: _31  and  _32
REMARK   18  A    between atoms: _34  and  _36
REMARK   19  A    between atoms: _36  and  _37
REMARK   20  A    between atoms: _39  and  _41
REMARK   21  A    between atoms: _41  and  _42
REMARK   22  A    between atoms: _41  and  _44
REMARK   23  A    between atoms: _44  and  _45
REMARK   24  A    between atoms: _48  and  _50
REMARK   25  A    between atoms: _50  and  _51
REMARK   26  A    between atoms: _50  and  _53
REMARK   27  A    between atoms: _53  and  _54
REMARK   28  A    between atoms: _54  and  _55
REMARK   29  A    between atoms: _60  and  _62
REMARK   30  A    between atoms: _62  and  _63
REMARK   31  A    between atoms: _62  and  _65
REMARK   32  A    between atoms: _65  and  _66
REMARK   33  A    between atoms: _66  and  _67
REMARK   34  A    between atoms: _72  and  _74
REMARK   35  A    between atoms: _74  and  _75
REMARK   36  A    between atoms: _74  and  _77
REMARK   37  A    between atoms: _77  and  _78
REMARK   38  A    between atoms: _80  and  _82
REMARK   39  A    between atoms: _82  and  _83
REMARK   40  A    between atoms: _82  and  _85
REMARK   41  A    between atoms: _85  and  _86
REMARK   42  A    between atoms: _89  and  _91
REMARK   43  A    between atoms: _91  and  _92
REMARK   44  A    between atoms: _91  and  _94
REMARK   45  A    between atoms: _94  and  _95
REMARK   46  A    between atoms: _100  and  _102
REMARK   47  A    between atoms: _102  and  _103
REMARK   48  A    between atoms: _102  and  _105
REMARK   49  A    between atoms: _108  and  _110
REMARK   50  A    between atoms: _110  and  _111
REMARK   51  A    between atoms: _110  and  _113
REMARK   52  A    between atoms: _113  and  _114
REMARK   53  A    between atoms: _114  and  _115
REMARK   54  A    between atoms: _115  and  _116
REMARK   55  A    between atoms: _125  and  _127
REMARK   56  A    between atoms: _127  and  _128
REMARK   57  A    between atoms: _127  and  _130
REMARK   58  A    between atoms: _130  and  _131
REMARK   59  A    between atoms: _133  and  _135
REMARK   60  A    between atoms: _135  and  _136
REMARK   61  A    between atoms: _135  and  _138
REMARK   62  A    between atoms: _138  and  _139
REMARK   63  A    between atoms: _141  and  _143
REMARK   64  A    between atoms: _143  and  _144
REMARK   65  A    between atoms: _143  and  _146
REMARK   66  A    between atoms: _146  and  _147
REMARK   67  A    between atoms: _147  and  _148
REMARK   68  A    between atoms: _151  and  _153
REMARK   69  A    between atoms: _153  and  _154
REMARK   70  A    between atoms: _153  and  _156
REMARK   71  A    between atoms: _156  and  _157
REMARK   72  A    between atoms: _160  and  _162
REMARK   73  A    between atoms: _162  and  _163
REMARK   74  A    between atoms: _165  and  _167
REMARK   75  A    between atoms: _167  and  _168
REMARK   76  A    between atoms: _167  and  _170
REMARK   77  A    between atoms: _170  and  _171
REMARK   78  A    between atoms: _174  and  _176
REMARK   79  A    between atoms: _185  and  _188
REMARK   80  A    between atoms: _188  and  _189
REMARK   81  A    between atoms: _196  and  _197
REMARK   82  A    between atoms: _203  and  _205
REMARK   83  A    between atoms: _205  and  _206
REMARK   84  A    between atoms: _205  and  _208
REMARK   85  A    between atoms: _208  and  _209
REMARK   86  A    between atoms: _214  and  _215
REMARK   87  A    between atoms: _217  and  _219
REMARK   88  A    between atoms: _219  and  _220
REMARK   89  A    between atoms: _219  and  _222
REMARK   90  A    between atoms: _222  and  _223
REMARK   91  A    between atoms: _223  and  _224
REMARK   92  A    between atoms: _223  and  _225
REMARK   93  A    between atoms: _224  and  CA_258
REMARK   94  A    between atoms: _228  and  _230
REMARK   95  A    between atoms: _230  and  _231
REMARK   96  A    between atoms: _230  and  _233
REMARK   97  A    between atoms: _233  and  _234
REMARK   98  A    between atoms: _237  and  _239
REMARK   99  A    between atoms: _239  and  _240
REMARK  100  A    between atoms: _243  and  _245
REMARK  101  A    between atoms: _245  and  _246
REMARK  102  A    between atoms: _245  and  _248
REMARK  103  A    between atoms: _248  and  _249
REMARK  104  A    between atoms: _252  and  _254
REMARK  105  A    between atoms: _254  and  _255
REMARK                            x       y       z     vdW  Elec       q    Type
REMARK                         _______ _______ _______ _____ _____    ______ ____
ROOT
ATOM      1  O   HOH     1      12.526  19.016  27.433  0.00  0.00    +0.000 OA
ENDROOT
TORSDOF 0
REMARK  Name = ../refined-set-2016/2boj/2boj_pocket.pdb
REMARK  105 active torsions:
REMARK  status: ('A' for Active; 'I' for Inactive)
REMARK    1  A    between atoms: _1  and  _3
REMARK    2  A    between atoms: _3  and  _4
REMARK    3  A    between atoms: _7  and  _9
REMARK    4  A    between atoms: _9  and  _10
REMARK    5  A    between atoms: _9  and  _12
REMARK    6  A    between atoms: _10  and  _11
REMARK    7  A    between atoms: _10  and  _18
REMARK    8  A    between atoms: _11  and  CA_258
REMARK    9  A    between atoms: _12  and  _13
REMARK   10  A    between atoms: _18  and  _20
REMARK   11  A    between atoms: _20  and  _21
REMARK   12  A    between atoms: _20  and  _23
REMARK   13  A    between atoms: _23  and  _24
REMARK   14  A    between atoms: _26  and  _28
REMARK   15  A    between atoms: _28  and  _29
REMARK   16  A    between atoms: _28  and  _31
REMARK   17  A    between atoms: _31  and  _32
REMARK   18  A    between atoms: _34  and  _36
REMARK   19  A    between atoms: _36  and  _37
REMARK   20  A    between atoms: _39  and  _41
REMARK   21  A    between atoms: _41  and  _42
REMARK   22  A    between atoms: _41  and  _44
REMARK   23  A    between atoms: _44  and  _45
REMARK   24  A    between atoms: _48  and  _50
REMARK   25  A    between atoms: _50  and  _51
REMARK   26  A    between atoms: _50  and  _53
REMARK   27  A    between atoms: _53  and  _54
REMARK   28  A    between atoms: _54  and  _55
REMARK   29  A    between atoms: _60  and  _62
REMARK   30  A    between atoms: _62  and  _63
REMARK   31  A    between atoms: _62  and  _65
REMARK   32  A    between atoms: _65  and  _66
REMARK   33  A    between atoms: _66  and  _67
REMARK   34  A    between atoms: _72  and  _74
REMARK   35  A    between atoms: _74  and  _75
REMARK   36  A    between atoms: _74  and  _77
REMARK   37  A    between atoms: _77  and  _78
REMARK   38  A    between atoms: _80  and  _82
REMARK   39  A    between atoms: _82  and  _83
REMARK   40  A    between atoms: _82  and  _85
REMARK   41  A    between atoms: _85  and  _86
REMARK   42  A    between atoms: _89  and  _91
REMARK   43  A    between atoms: _91  and  _92
REMARK   44  A    between atoms: _91  and  _94
REMARK   45  A    between atoms: _94  and  _95
REMARK   46  A    between atoms: _100  and  _102
REMARK   47  A    between atoms: _102  and  _103
REMARK   48  A    between atoms: _102  and  _105
REMARK   49  A    between atoms: _108  and  _110
REMARK   50  A    between atoms: _110  and  _111
REMARK   51  A    between atoms: _110  and  _113
REMARK   52  A    between atoms: _113  and  _114
REMARK   53  A    between atoms: _114  and  _115
REMARK   54  A    between atoms: _115  and  _116
REMARK   55  A    between atoms: _125  and  _127
REMARK   56  A    between atoms: _127  and  _128
REMARK   57  A    between atoms: _127  and  _130
REMARK   58  A    between atoms: _130  and  _131
REMARK   59  A    between atoms: _133  and  _135
REMARK   60  A    between atoms: _135  and  _136
REMARK   61  A    between atoms: _135  and  _138
REMARK   62  A    between atoms: _138  and  _139
REMARK   63  A    between atoms: _141  and  _143
REMARK   64  A    between atoms: _143  and  _144
REMARK   65  A    between atoms: _143  and  _146
REMARK   66  A    between atoms: _146  and  _147
REMARK   67  A    between atoms: _147  and  _148
REMARK   68  A    between atoms: _151  and  _153
REMARK   69  A    between atoms: _153  and  _154
REMARK   70  A    between atoms: _153  and  _156
REMARK   71  A    between atoms: _156  and  _157
REMARK   72  A    between atoms: _160  and  _162
REMARK   73  A    between atoms: _162  and  _163
REMARK   74  A    between atoms: _165  and  _167
REMARK   75  A    between atoms: _167  and  _168
REMARK   76  A    between atoms: _167  and  _170
REMARK   77  A    between atoms: _170  and  _171
REMARK   78  A    between atoms: _174  and  _176
REMARK   79  A    between atoms: _185  and  _188
REMARK   80  A    between atoms: _188  and  _189
REMARK   81  A    between atoms: _196  and  _197
REMARK   82  A    between atoms: _203  and  _205
REMARK   83  A    between atoms: _205  and  _206
REMARK   84  A    between atoms: _205  and  _208
REMARK   85  A    between atoms: _208  and  _209
REMARK   86  A    between atoms: _214  and  _215
REMARK   87  A    between atoms: _217  and  _219
REMARK   88  A    between atoms: _219  and  _220
REMARK   89  A    between atoms: _219  and  _222
REMARK   90  A    between atoms: _222  and  _223
REMARK   91  A    between atoms: _223  and  _224
REMARK   92  A    between atoms: _223  and  _225
REMARK   93  A    between atoms: _224  and  CA_258
REMARK   94  A    between atoms: _228  and  _230
REMARK   95  A    between atoms: _230  and  _231
REMARK   96  A    between atoms: _230  and  _233
REMARK   97  A    between atoms: _233  and  _234
REMARK   98  A    between atoms: _237  and  _239
REMARK   99  A    between atoms: _239  and  _240
REMARK  100  A    between atoms: _243  and  _245
REMARK  101  A    between atoms: _245  and  _246
REMARK  102  A    between atoms: _245  and  _248
REMARK  103  A    between atoms: _248  and  _249
REMARK  104  A    between atoms: _252  and  _254
REMARK  105  A    between atoms: _254  and  _255
REMARK                            x       y       z     vdW  Elec       q    Type
REMARK                         _______ _______ _______ _____ _____    ______ ____
ROOT
ATOM      1  O   HOH     1      16.213  19.370  31.327  0.00  0.00    +0.000 OA
ENDROOT
TORSDOF 0
