REMARK  Name = ../refined-set-2016/2eg7/2eg7_pocket.pdb
REMARK  139 active torsions:
REMARK  status: ('A' for Active; 'I' for Inactive)
REMARK    1  A    between atoms: _1  and  _3
REMARK    2  A    between atoms: _14  and  _17
REMARK    3  A    between atoms: _17  and  _18
REMARK    4  A    between atoms: _23  and  _24
REMARK    5  A    between atoms: _32  and  _34
REMARK    6  A    between atoms: _34  and  _35
REMARK    7  A    between atoms: _34  and  _37
REMARK    8  A    between atoms: _37  and  _38
REMARK    9  A    between atoms: _41  and  _43
REMARK   10  A    between atoms: _43  and  _44
REMARK   11  A    between atoms: _43  and  _46
REMARK   12  A    between atoms: _46  and  _47
REMARK   13  A    between atoms: _47  and  _48
REMARK   14  A    between atoms: _48  and  _49
REMARK   15  A    between atoms: _58  and  _60
REMARK   16  A    between atoms: _60  and  _61
REMARK   17  A    between atoms: _60  and  _63
REMARK   18  A    between atoms: _63  and  _64
REMARK   19  A    between atoms: _64  and  _65
REMARK   20  A    between atoms: _67  and  _69
REMARK   21  A    between atoms: _69  and  _70
REMARK   22  A    between atoms: _69  and  _72
REMARK   23  A    between atoms: _72  and  _73
REMARK   24  A    between atoms: _78  and  _80
REMARK   25  A    between atoms: _80  and  _81
REMARK   26  A    between atoms: _80  and  _83
REMARK   27  A    between atoms: _83  and  _84
REMARK   28  A    between atoms: _87  and  _89
REMARK   29  A    between atoms: _89  and  _90
REMARK   30  A    between atoms: _89  and  _96
REMARK   31  A    between atoms: _90  and  _91
REMARK   32  A    between atoms: _91  and  _92
REMARK   33  A    between atoms: _92  and  _93
REMARK   34  A    between atoms: _93  and  _94
REMARK   35  A    between atoms: _94  and  _98
REMARK   36  A    between atoms: _98  and  _99
REMARK   37  A    between atoms: _98  and  _100
REMARK   38  A    between atoms: _99  and  ZN_344
REMARK   39  A    between atoms: _100  and  ZN_345
REMARK   40  A    between atoms: _101  and  _103
REMARK   41  A    between atoms: _103  and  _104
REMARK   42  A    between atoms: _103  and  _106
REMARK   43  A    between atoms: _106  and  _107
REMARK   44  A    between atoms: _112  and  _113
REMARK   45  A    between atoms: _116  and  _117
REMARK   46  A    between atoms: _122  and  _124
REMARK   47  A    between atoms: _124  and  _125
REMARK   48  A    between atoms: _124  and  _127
REMARK   49  A    between atoms: _127  and  _128
REMARK   50  A    between atoms: _129  and  ZN_344
REMARK   51  A    between atoms: _133  and  _135
REMARK   52  A    between atoms: _135  and  _136
REMARK   53  A    between atoms: _138  and  _140
REMARK   54  A    between atoms: _140  and  _141
REMARK   55  A    between atoms: _140  and  _143
REMARK   56  A    between atoms: _143  and  _144
REMARK   57  A    between atoms: _144  and  _145
REMARK   58  A    between atoms: _148  and  _150
REMARK   59  A    between atoms: _150  and  _151
REMARK   60  A    between atoms: _150  and  _153
REMARK   61  A    between atoms: _153  and  _154
REMARK   62  A    between atoms: _154  and  _155
REMARK   63  A    between atoms: _158  and  _160
REMARK   64  A    between atoms: _160  and  _161
REMARK   65  A    between atoms: _160  and  _163
REMARK   66  A    between atoms: _163  and  _164
REMARK   67  A    between atoms: _168  and  ZN_344
REMARK   68  A    between atoms: _169  and  _171
REMARK   69  A    between atoms: _171  and  _172
REMARK   70  A    between atoms: _171  and  _174
REMARK   71  A    between atoms: _174  and  _175
REMARK   72  A    between atoms: _178  and  _180
REMARK   73  A    between atoms: _180  and  _181
REMARK   74  A    between atoms: _180  and  _183
REMARK   75  A    between atoms: _183  and  _184
REMARK   76  A    between atoms: _184  and  _185
REMARK   77  A    between atoms: _190  and  _192
REMARK   78  A    between atoms: _192  and  _193
REMARK   79  A    between atoms: _192  and  _195
REMARK   80  A    between atoms: _195  and  _196
REMARK   81  A    between atoms: _201  and  _203
REMARK   82  A    between atoms: _203  and  _204
REMARK   83  A    between atoms: _203  and  _206
REMARK   84  A    between atoms: _206  and  _207
REMARK   85  A    between atoms: _210  and  _212
REMARK   86  A    between atoms: _212  and  _213
REMARK   87  A    between atoms: _212  and  _215
REMARK   88  A    between atoms: _215  and  _216
REMARK   89  A    between atoms: _221  and  _222
REMARK   90  A    between atoms: _224  and  _226
REMARK   91  A    between atoms: _226  and  _227
REMARK   92  A    between atoms: _226  and  _229
REMARK   93  A    between atoms: _231  and  _233
REMARK   94  A    between atoms: _233  and  _234
REMARK   95  A    between atoms: _233  and  _236
REMARK   96  A    between atoms: _236  and  _237
REMARK   97  A    between atoms: _241  and  _242
REMARK   98  A    between atoms: _247  and  _249
REMARK   99  A    between atoms: _249  and  _250
REMARK  100  A    between atoms: _249  and  _252
REMARK  101  A    between atoms: _252  and  _253
REMARK  102  A    between atoms: _256  and  _258
REMARK  103  A    between atoms: _258  and  _259
REMARK  104  A    between atoms: _258  and  _261
REMARK  105  A    between atoms: _261  and  _262
REMARK  106  A    between atoms: _265  and  _267
REMARK  107  A    between atoms: _267  and  _268
REMARK  108  A    between atoms: _267  and  _270
REMARK  109  A    between atoms: _270  and  _271
REMARK  110  A    between atoms: _271  and  _272
REMARK  111  A    between atoms: _272  and  ZN_345
REMARK  112  A    between atoms: _274  and  _276
REMARK  113  A    between atoms: _276  and  _277
REMARK  114  A    between atoms: _276  and  _279
REMARK  115  A    between atoms: _279  and  _280
REMARK  116  A    between atoms: _282  and  _284
REMARK  117  A    between atoms: _284  and  _285
REMARK  118  A    between atoms: _289  and  _290
REMARK  119  A    between atoms: _295  and  _297
REMARK  120  A    between atoms: _297  and  _298
REMARK  121  A    between atoms: _297  and  _300
REMARK  122  A    between atoms: _300  and  _301
REMARK  123  A    between atoms: _306  and  _308
REMARK  124  A    between atoms: _308  and  _309
REMARK  125  A    between atoms: _308  and  _311
REMARK  126  A    between atoms: _311  and  _312
REMARK  127  A    between atoms: _312  and  _313
REMARK  128  A    between atoms: _313  and  _314
REMARK  129  A    between atoms: _314  and  _315
REMARK  130  A    between atoms: _319  and  _321
REMARK  131  A    between atoms: _321  and  _322
REMARK  132  A    between atoms: _321  and  _324
REMARK  133  A    between atoms: _326  and  _328
REMARK  134  A    between atoms: _328  and  _329
REMARK  135  A    between atoms: _332  and  _334
REMARK  136  A    between atoms: _334  and  _335
REMARK  137  A    between atoms: _337  and  _339
REMARK  138  A    between atoms: _339  and  _340
REMARK  139  A    between atoms: _339  and  _342
REMARK                            x       y       z     vdW  Elec       q    Type
REMARK                         _______ _______ _______ _____ _____    ______ ____
ROOT
ATOM      1  C   UNK A   1      30.953  42.734  81.594  0.00  0.00    +0.000 C 
ATOM      2  C   UNK A   1      29.492  43.142  81.368  0.00  0.00    +0.000 C 
ATOM      3  O   UNK A   1      28.608  42.327  81.487  0.00  0.00    +0.000 OA
ATOM      4  N   UNK A   2      29.252  44.399  80.991  0.00  0.00    +0.000 N 
ATOM      5  H   UNK A   2      30.049  45.045  80.820  0.00  0.00    +0.000 HD
ATOM      6  C   UNK A   2      27.902  44.874  80.818  0.00  0.00    +0.000 C 
ATOM      7  C   UNK A   2      27.664  45.767  79.568  0.00  0.00    +0.000 C 
ATOM      8  O   UNK A   2      28.497  46.605  79.210  0.00  0.00    +0.000 OA
ATOM      9  N   UNK A   3      26.484  45.612  78.963  0.00  0.00    +0.000 N 
ATOM     10  H   UNK A   3      25.877  44.817  79.250  0.00  0.00    +0.000 HD
ATOM     11  C   UNK A   3      26.007  46.517  77.909  0.00  0.00    +0.000 C 
ATOM     12  C   UNK A   3      25.588  45.708  76.690  0.00  0.00    +0.000 C 
ATOM     13  C   UNK A   3      26.686  44.869  76.138  0.00  0.00    +0.000 A 
ATOM     14  C   UNK A   3      27.079  43.602  76.422  0.00  0.00    +0.000 A 
ATOM     15  N   UNK A   3      28.185  43.347  75.659  0.00  0.00    +0.000 N 
ATOM     16 ZN   UNK A   1      29.339  41.659  75.775  0.00  0.00    +0.000 Zn
ATOM     17  N   UNK A   1      30.648  41.289  77.401  0.00  0.00    +0.000 N 
ATOM     18  C   UNK A   1      30.230  41.684  78.648  0.00  0.00    +0.000 A 
ATOM     19  C   UNK A   1      31.156  41.254  79.536  0.00  0.00    +0.000 A 
ATOM     20  N   UNK A   1      32.113  40.579  78.791  0.00  0.00    +0.000 NA
ATOM     21  C   UNK A   1      31.788  40.631  77.517  0.00  0.00    +0.000 A 
ATOM     22  C   UNK A   3      28.475  44.418  74.947  0.00  0.00    +0.000 A 
ATOM     23  N   UNK A   3      27.580  45.353  75.214  0.00  0.00    +0.000 NA
ATOM     24  C   UNK A   1      31.216  41.347  81.032  0.00  0.00    +0.000 C 
ENDROOT
BRANCH  11  25
ATOM     25  C   UNK A   3      24.846  47.381  78.373  0.00  0.00    +0.000 C 
ATOM     26  O   UNK A   3      23.791  46.865  78.696  0.00  0.00    +0.000 OA
ATOM     27  N   ALA A   4      25.048  48.697  78.382  0.00  0.00    +0.000 N 
ATOM     28  H   ALA A   4      25.972  49.063  78.074  0.00  0.00    +0.000 HD
BRANCH  27  29
ATOM     29  CA  ALA A   4      24.007  49.662  78.814  0.00  0.00    +0.000 C 
BRANCH  29  30
ATOM     30  C   ALA A   4      23.291  50.370  77.679  0.00  0.00    +0.000 C 
ATOM     31  O   ALA A   4      22.229  51.031  77.912  0.00  0.00    +0.000 OA
ATOM     32  N   PRO A   5      23.822  50.209  76.458  0.00  0.00    +0.000 N 
ATOM     33  H   PRO A   5      24.674  49.621  76.356  0.00  0.00    +0.000 HD
BRANCH  32  34
ATOM     34  CA  PRO A   5      23.256  50.822  75.278  0.00  0.00    +0.000 C 
BRANCH  34  35
ATOM     35  C   PRO A   5      23.349  52.351  75.421  0.00  0.00    +0.000 C 
ATOM     36  O   PRO A   5      24.336  52.865  75.975  0.00  0.00    +0.000 OA
ENDBRANCH  34  35
BRANCH  34  37
ATOM     37  CB  PRO A   5      21.813  50.327  75.055  0.00  0.00    +0.000 C 
BRANCH  37  38
ATOM     38  CG  PRO A   5      21.681  48.807  75.112  0.00  0.00    +0.000 C 
BRANCH  38  39
ATOM     39  CD  PRO A   5      22.533  48.119  74.077  0.00  0.00    +0.000 C 
BRANCH  39  40
ATOM     40  NE  PRO A   5      22.118  46.724  73.883  0.00  0.00    +0.330 N 
ATOM     41  HE  PRO A   5      21.152  46.470  74.172  0.00  0.00    +0.000 HD
ATOM     42  CZ  PRO A   5      22.872  45.758  73.369  0.00  0.00    +0.000 C 
ATOM     43  NH2 PRO A   5      22.367  44.557  73.254  0.00  0.00    +0.330 N 
ATOM     44 HH21 PRO A   5      21.391  44.371  73.562  0.00  0.00    +0.000 HD
ATOM     45 HH22 PRO A   5      22.941  43.788  72.854  0.00  0.00    +0.000 HD
ATOM     46  NH1 PRO A   5      24.129  45.974  72.982  0.00  0.00    +0.330 N 
ATOM     47 HH11 PRO A   5      24.547  46.921  73.078  0.00  0.00    +0.000 HD
ATOM     48 HH12 PRO A   5      24.692  45.195  72.584  0.00  0.00    +0.000 HD
ENDBRANCH  39  40
ENDBRANCH  38  39
ENDBRANCH  37  38
ENDBRANCH  34  37
ENDBRANCH  32  34
ENDBRANCH  29  30
BRANCH  29  49
ATOM     49  CB  ALA A   4      24.593  50.707  79.761  0.00  0.00    +0.000 C 
BRANCH  49  50
ATOM     50  CG  ALA A   4      25.049  50.124  81.111  0.00  0.00    +0.000 C 
ATOM     51  CD2 ALA A   4      25.751  51.136  81.967  0.00  0.00    +0.000 C 
ATOM     52  CD1 ALA A   4      23.866  49.497  81.879  0.00  0.00    +0.000 C 
ENDBRANCH  49  50
ENDBRANCH  29  49
ENDBRANCH  27  29
ENDBRANCH  11  25
BRANCH   1  53
ATOM     53  N   UNK A   1      31.254  42.741  83.015  0.00  0.00    +0.000 NA
ATOM     54  H   UNK A   1      30.472  42.661  83.696  0.00  0.00    +0.000 HD
ENDBRANCH   1  53
BRANCH  16  55
ATOM     55  O   UNK A   2      27.904  40.705  76.971  0.00  0.00    +0.000 OA
BRANCH  55  56
ATOM     56  C   UNK A   2      27.683  39.494  77.250  0.00  0.00    +0.000 C 
ATOM     57  O   UNK A   2      27.670  38.583  76.386  0.00  0.00    +0.000 OA
BRANCH  56  58
ATOM     58  C   UNK A   2      27.401  39.100  78.695  0.00  0.00    +0.000 C 
BRANCH  58  59
ATOM     59  C   UNK A   2      26.904  40.268  79.539  0.00  0.00    +0.000 C 
BRANCH  59  60
ATOM     60  C   UNK A   2      25.454  40.564  79.256  0.00  0.00    +0.000 C 
ATOM     61  N   UNK A   3      24.819  41.286  80.179  0.00  0.00    +0.000 N 
ATOM     62  H   UNK A   3      25.312  41.544  81.057  0.00  0.00    +0.000 HD
ATOM     63  O   UNK A   2      24.919  40.169  78.214  0.00  0.00    +0.000 OA
BRANCH  61  64
ATOM     64  C   UNK A   3      23.471  41.709  79.977  0.00  0.00    +0.000 C 
BRANCH  64  65
ATOM     65  C   UNK A   3      23.478  42.547  78.711  0.00  0.00    +0.000 C 
ATOM     66  O   UNK A   3      24.272  43.457  78.599  0.00  0.00    +0.000 OA
ATOM     67  N   ALA A   4      22.590  42.215  77.770  0.00  0.00    +0.000 N 
ATOM     68  H   ALA A   4      21.783  41.615  78.035  0.00  0.00    +0.000 HD
BRANCH  67  69
ATOM     69  CA  ALA A   4      22.707  42.661  76.385  0.00  0.00    +0.000 C 
ATOM     70  CB  ALA A   4      23.591  41.665  75.598  0.00  0.00    +0.000 C 
BRANCH  69  71
ATOM     71  C   ALA A   4      21.306  42.805  75.803  0.00  0.00    +0.000 C 
ATOM     72  N   PRO A   5      20.624  43.887  76.199  0.00  0.00    +0.000 N 
ATOM     73  CD  PRO A   5      21.180  44.976  77.036  0.00  0.00    +0.000 C 
ATOM     74  CG  PRO A   5      20.024  45.888  77.307  0.00  0.00    +0.000 C 
ATOM     75  CB  PRO A   5      18.752  45.155  76.911  0.00  0.00    +0.000 C 
ATOM     76  CA  PRO A   5      19.204  44.078  75.897  0.00  0.00    +0.000 C 
ATOM     77  O   ALA A   4      20.820  41.944  75.068  0.00  0.00    +0.000 OA
BRANCH  76  78
ATOM     78  C   PRO A   5      18.875  44.541  74.487  0.00  0.00    +0.000 C 
ATOM     79  N   HIS A   6      17.762  43.987  73.998  0.00  0.00    +0.000 N 
ATOM     80  H   HIS A   6      17.304  43.256  74.579  0.00  0.00    +0.000 HD
ATOM     81  O   PRO A   5      19.588  45.384  73.893  0.00  0.00    +0.000 OA
BRANCH  79  82
ATOM     82  CA  HIS A   6      17.137  44.309  72.738  0.00  0.00    +0.000 C 
BRANCH  82  83
ATOM     83  C   HIS A   6      15.626  44.330  72.995  0.00  0.00    +0.000 C 
ATOM     84  O   HIS A   6      15.102  43.464  73.723  0.00  0.00    +0.000 OA
ENDBRANCH  82  83
BRANCH  82  85
ATOM     85  CB  HIS A   6      17.434  43.234  71.688  0.00  0.00    +0.000 C 
BRANCH  85  86
ATOM     86  CG  HIS A   6      18.888  43.130  71.340  0.00  0.00    +0.000 A 
ATOM     87  CD2 HIS A   6      19.862  42.340  71.840  0.00  0.00    +0.000 A 
ATOM     88  NE2 HIS A   6      21.025  42.672  71.194  0.00  0.00    +0.000 NA
ATOM     89  CE1 HIS A   6      20.773  43.644  70.333  0.00  0.00    +0.000 A 
ATOM     90  ND1 HIS A   6      19.489  43.946  70.404  0.00  0.00    +0.000 NA
ENDBRANCH  85  86
ENDBRANCH  82  85
ENDBRANCH  79  82
ENDBRANCH  76  78
ENDBRANCH  69  71
ENDBRANCH  67  69
ENDBRANCH  64  65
BRANCH  64  91
ATOM     91  C   UNK A   3      22.961  42.572  81.142  0.00  0.00    +0.000 C 
BRANCH  91  92
ATOM     92  O   UNK A   3      21.616  42.879  80.917  0.00  0.00    +0.000 OA
ATOM     93  H   UNK A   3      21.530  43.377  80.066  0.00  0.00    +0.000 HD
ENDBRANCH  91  92
ENDBRANCH  64  91
ENDBRANCH  61  64
ENDBRANCH  59  60
BRANCH  59  94
ATOM     94  N   UNK A   2      27.119  40.055  80.959  0.00  0.00    +0.000 N 
ATOM     95  C   UNK A   1      26.503  39.120  81.675  0.00  0.00    +0.000 C 
ATOM     96  O   UNK A   1      25.909  38.195  81.164  0.00  0.00    +0.000 OA
ATOM     97  H   UNK A   2      27.798  40.673  81.447  0.00  0.00    +0.000 HD
BRANCH  95  98
ATOM     98  C   UNK A   1      26.587  39.240  83.191  0.00  0.00    +0.000 C 
BRANCH  98  99
ATOM     99  N   UNK A   1      27.910  39.666  83.666  0.00  0.00    +0.000 NA
ATOM    100  H   UNK A   1      28.016  40.594  84.123  0.00  0.00    +0.000 HD
ENDBRANCH  98  99
BRANCH  98 101
ATOM    101  C   UNK A   1      25.478  40.202  83.641  0.00  0.00    +0.000 C 
ATOM    102  C   UNK A   1      25.371  40.254  85.151  0.00  0.00    +0.000 C 
BRANCH 101 103
ATOM    103  O   UNK A   1      25.714  41.508  83.098  0.00  0.00    +0.000 OA
ATOM    104  H   UNK A   1      26.588  41.844  83.418  0.00  0.00    +0.000 HD
ENDBRANCH 101 103
ENDBRANCH  98 101
ENDBRANCH  95  98
ENDBRANCH  59  94
ENDBRANCH  58  59
ENDBRANCH  56  58
ENDBRANCH  55  56
ENDBRANCH  16  55
BRANCH  16 105
ATOM    105  O   UNK A   1      31.014  42.632  74.727  0.00  0.00    +0.000 OA
BRANCH 105 106
ATOM    106  C   UNK A   1      32.165  42.144  74.632  0.00  0.00    +0.000 C 
BRANCH 106 107
ATOM    107  N   UNK A   1      33.234  42.902  74.858  0.00  0.00    +0.000 NA
ATOM    108  H   UNK A   1      33.118  43.896  75.140  0.00  0.00    +0.000 HD
BRANCH 107 109
ATOM    109  C   UNK A   1      34.609  42.320  74.705  0.00  0.00    +0.000 C 
BRANCH 109 110
ATOM    110  C   UNK A   1      35.721  43.381  74.844  0.00  0.00    +0.000 C 
BRANCH 110 111
ATOM    111  C   UNK A   1      35.418  44.659  74.025  0.00  0.00    +0.000 C 
BRANCH 111 112
ATOM    112  C   UNK A   1      36.292  45.820  74.471  0.00  0.00    +0.000 C 
BRANCH 112 113
ATOM    113  C   UNK A   1      37.820  45.554  74.350  0.00  0.00    +0.000 C 
BRANCH 113 114
ATOM    114  N   UNK A   1      38.575  46.725  74.776  0.00  0.00    +0.000 NA
ATOM    115  H   UNK A   1      38.381  47.642  74.325  0.00  0.00    +0.000 HD
ENDBRANCH 113 114
BRANCH 113 116
ATOM    116  C   UNK A   1      38.168  45.194  72.911  0.00  0.00    +0.000 C 
ATOM    117  O   UNK A   1      38.072  46.045  72.006  0.00  0.00    +0.000 OA
ENDBRANCH 113 116
ENDBRANCH 112 113
ENDBRANCH 111 112
ENDBRANCH 110 111
ENDBRANCH 109 110
ENDBRANCH 107 109
ENDBRANCH 106 107
BRANCH 106 118
ATOM    118  O   UNK A   1      32.334  40.957  74.302  0.00  0.00    +0.000 OA
BRANCH 118 119
ATOM    119 ZN   UNK A   2      31.185  39.499  73.678  0.00  0.00    +0.000 Zn
BRANCH 119 120
ATOM    120  N   UNK A   1      31.969  38.474  71.938  0.00  0.00    +0.000 N 
ATOM    121  C   UNK A   1      33.306  38.331  71.624  0.00  0.00    +0.000 A 
ATOM    122  C   UNK A   1      33.376  37.289  70.768  0.00  0.00    +0.000 A 
ATOM    123  N   UNK A   1      32.100  36.840  70.567  0.00  0.00    +0.000 NA
ATOM    124  C   UNK A   1      31.269  37.571  71.283  0.00  0.00    +0.000 A 
BRANCH 121 125
ATOM    125  C   UNK A   1      34.386  39.197  72.209  0.00  0.00    +0.000 C 
BRANCH 125 126
ATOM    126  C   UNK A   1      35.487  38.402  72.932  0.00  0.00    +0.000 C 
BRANCH 126 127
ATOM    127  C   UNK A   1      36.177  37.362  71.999  0.00  0.00    +0.000 C 
ATOM    128  N   UNK A   2      36.370  36.166  72.539  0.00  0.00    +0.000 N 
ATOM    129  H   UNK A   2      35.898  35.936  73.437  0.00  0.00    +0.000 HD
ATOM    130  O   UNK A   1      36.577  37.651  70.851  0.00  0.00    +0.000 OA
BRANCH 128 131
ATOM    131  C   UNK A   2      37.215  35.173  71.919  0.00  0.00    +0.000 C 
BRANCH 131 132
ATOM    132  C   UNK A   2      36.481  34.215  70.993  0.00  0.00    +0.000 C 
ATOM    133  O   UNK A   2      36.216  33.053  71.360  0.00  0.00    +0.000 OA
ATOM    134  N   UNK A   3      36.195  34.718  69.794  0.00  0.00    +0.000 N 
ATOM    135  H   UNK A   3      36.388  35.728  69.636  0.00  0.00    +0.000 HD
BRANCH 134 136
ATOM    136  C   UNK A   3      35.628  33.953  68.682  0.00  0.00    +0.000 C 
BRANCH 136 137
ATOM    137  C   UNK A   3      36.299  34.397  67.380  0.00  0.00    +0.000 C 
ATOM    138  O   UNK A   3      36.563  35.577  67.181  0.00  0.00    +0.000 OA
ENDBRANCH 136 137
BRANCH 136 139
ATOM    139  C   UNK A   3      34.124  34.168  68.541  0.00  0.00    +0.000 C 
BRANCH 139 140
ATOM    140  C   UNK A   3      33.323  33.501  69.635  0.00  0.00    +0.000 C 
BRANCH 140 141
ATOM    141  C   UNK A   3      31.826  33.530  69.368  0.00  0.00    +0.000 C 
ATOM    142  O   UNK A   3      31.234  34.634  69.360  0.00  0.00    +0.000 OA
ATOM    143  O   UNK A   3      31.229  32.441  69.170  0.00  0.00    +0.000 OA
ENDBRANCH 140 141
ENDBRANCH 139 140
ENDBRANCH 136 139
ENDBRANCH 134 136
ENDBRANCH 131 132
ENDBRANCH 128 131
ENDBRANCH 126 127
BRANCH 126 144
ATOM    144  N   UNK A   1      36.511  39.265  73.496  0.00  0.00    +0.000 NA
ATOM    145  H   UNK A   1      36.631  40.222  73.107  0.00  0.00    +0.000 HD
ENDBRANCH 126 144
ENDBRANCH 125 126
ENDBRANCH 121 125
ENDBRANCH 119 120
BRANCH 119 146
ATOM    146  N   UNK A   2      31.416  37.969  75.082  0.00  0.00    +0.000 N 
ATOM    147  C   UNK A   2      30.802  37.789  76.299  0.00  0.00    +0.000 A 
ATOM    148  C   UNK A   2      31.174  36.568  76.758  0.00  0.00    +0.000 A 
ATOM    149  N   UNK A   2      31.986  36.024  75.790  0.00  0.00    +0.000 NA
ATOM    150  C   UNK A   2      32.138  36.895  74.810  0.00  0.00    +0.000 A 
BRANCH 148 151
ATOM    151  C   UNK A   2      30.807  35.838  78.012  0.00  0.00    +0.000 C 
BRANCH 151 152
ATOM    152  C   UNK A   2      31.989  35.158  78.734  0.00  0.00    +0.000 C 
BRANCH 152 153
ATOM    153  N   UNK A   2      33.144  36.081  78.919  0.00  0.00    +0.000 N 
ATOM    154  H   UNK A   2      33.136  36.694  79.759  0.00  0.00    +0.000 HD
ATOM    155  C   UNK A   1      34.188  36.185  78.093  0.00  0.00    +0.000 C 
ATOM    156  O   UNK A   1      34.427  35.413  77.157  0.00  0.00    +0.000 OA
BRANCH 155 157
ATOM    157  C   UNK A   1      35.114  37.353  78.379  0.00  0.00    +0.000 C 
BRANCH 157 158
ATOM    158  N   UNK A   1      36.486  37.040  78.052  0.00  0.00    +0.000 NA
ATOM    159  H   UNK A   1      36.958  37.537  77.270  0.00  0.00    +0.000 HD
ENDBRANCH 157 158
BRANCH 157 160
ATOM    160  C   UNK A   1      34.637  38.595  77.612  0.00  0.00    +0.000 C 
BRANCH 160 161
ATOM    161  C   UNK A   1      35.298  39.909  78.047  0.00  0.00    +0.000 C 
BRANCH 161 162
ATOM    162  C   UNK A   1      35.167  40.191  79.546  0.00  0.00    +0.000 C 
ATOM    163  O   UNK A   1      34.117  39.897  80.188  0.00  0.00    +0.000 OA
ATOM    164  O   UNK A   1      36.109  40.763  80.082  0.00  0.00    +0.000 OA
ENDBRANCH 161 162
ENDBRANCH 160 161
ENDBRANCH 157 160
ENDBRANCH 155 157
ENDBRANCH 152 153
BRANCH 152 165
ATOM    165  C   UNK A   2      32.315  33.817  78.069  0.00  0.00    +0.000 C 
ATOM    166  O   UNK A   2      31.865  33.524  76.967  0.00  0.00    +0.000 OA
ENDBRANCH 152 165
ENDBRANCH 151 152
ENDBRANCH 148 151
ENDBRANCH 119 146
ENDBRANCH 118 119
ENDBRANCH 106 118
ENDBRANCH 105 106
ENDBRANCH  16 105
BRANCH   6 167
ATOM    167  C   UNK A   2      27.517  45.666  82.094  0.00  0.00    +0.000 C 
BRANCH 167 168
ATOM    168  C   UNK A   2      26.139  46.320  82.130  0.00  0.00    +0.000 C 
ATOM    169  C   UNK A   2      26.084  47.293  83.296  0.00  0.00    +0.000 C 
ATOM    170  C   UNK A   2      25.088  45.256  82.219  0.00  0.00    +0.000 C 
ENDBRANCH 167 168
ENDBRANCH   6 167
TORSDOF 69
REMARK  Name = ../refined-set-2016/2eg7/2eg7_pocket.pdb
REMARK  139 active torsions:
REMARK  status: ('A' for Active; 'I' for Inactive)
REMARK    1  A    between atoms: _1  and  _3
REMARK    2  A    between atoms: _14  and  _17
REMARK    3  A    between atoms: _17  and  _18
REMARK    4  A    between atoms: _23  and  _24
REMARK    5  A    between atoms: _32  and  _34
REMARK    6  A    between atoms: _34  and  _35
REMARK    7  A    between atoms: _34  and  _37
REMARK    8  A    between atoms: _37  and  _38
REMARK    9  A    between atoms: _41  and  _43
REMARK   10  A    between atoms: _43  and  _44
REMARK   11  A    between atoms: _43  and  _46
REMARK   12  A    between atoms: _46  and  _47
REMARK   13  A    between atoms: _47  and  _48
REMARK   14  A    between atoms: _48  and  _49
REMARK   15  A    between atoms: _58  and  _60
REMARK   16  A    between atoms: _60  and  _61
REMARK   17  A    between atoms: _60  and  _63
REMARK   18  A    between atoms: _63  and  _64
REMARK   19  A    between atoms: _64  and  _65
REMARK   20  A    between atoms: _67  and  _69
REMARK   21  A    between atoms: _69  and  _70
REMARK   22  A    between atoms: _69  and  _72
REMARK   23  A    between atoms: _72  and  _73
REMARK   24  A    between atoms: _78  and  _80
REMARK   25  A    between atoms: _80  and  _81
REMARK   26  A    between atoms: _80  and  _83
REMARK   27  A    between atoms: _83  and  _84
REMARK   28  A    between atoms: _87  and  _89
REMARK   29  A    between atoms: _89  and  _90
REMARK   30  A    between atoms: _89  and  _96
REMARK   31  A    between atoms: _90  and  _91
REMARK   32  A    between atoms: _91  and  _92
REMARK   33  A    between atoms: _92  and  _93
REMARK   34  A    between atoms: _93  and  _94
REMARK   35  A    between atoms: _94  and  _98
REMARK   36  A    between atoms: _98  and  _99
REMARK   37  A    between atoms: _98  and  _100
REMARK   38  A    between atoms: _99  and  ZN_344
REMARK   39  A    between atoms: _100  and  ZN_345
REMARK   40  A    between atoms: _101  and  _103
REMARK   41  A    between atoms: _103  and  _104
REMARK   42  A    between atoms: _103  and  _106
REMARK   43  A    between atoms: _106  and  _107
REMARK   44  A    between atoms: _112  and  _113
REMARK   45  A    between atoms: _116  and  _117
REMARK   46  A    between atoms: _122  and  _124
REMARK   47  A    between atoms: _124  and  _125
REMARK   48  A    between atoms: _124  and  _127
REMARK   49  A    between atoms: _127  and  _128
REMARK   50  A    between atoms: _129  and  ZN_344
REMARK   51  A    between atoms: _133  and  _135
REMARK   52  A    between atoms: _135  and  _136
REMARK   53  A    between atoms: _138  and  _140
REMARK   54  A    between atoms: _140  and  _141
REMARK   55  A    between atoms: _140  and  _143
REMARK   56  A    between atoms: _143  and  _144
REMARK   57  A    between atoms: _144  and  _145
REMARK   58  A    between atoms: _148  and  _150
REMARK   59  A    between atoms: _150  and  _151
REMARK   60  A    between atoms: _150  and  _153
REMARK   61  A    between atoms: _153  and  _154
REMARK   62  A    between atoms: _154  and  _155
REMARK   63  A    between atoms: _158  and  _160
REMARK   64  A    between atoms: _160  and  _161
REMARK   65  A    between atoms: _160  and  _163
REMARK   66  A    between atoms: _163  and  _164
REMARK   67  A    between atoms: _168  and  ZN_344
REMARK   68  A    between atoms: _169  and  _171
REMARK   69  A    between atoms: _171  and  _172
REMARK   70  A    between atoms: _171  and  _174
REMARK   71  A    between atoms: _174  and  _175
REMARK   72  A    between atoms: _178  and  _180
REMARK   73  A    between atoms: _180  and  _181
REMARK   74  A    between atoms: _180  and  _183
REMARK   75  A    between atoms: _183  and  _184
REMARK   76  A    between atoms: _184  and  _185
REMARK   77  A    between atoms: _190  and  _192
REMARK   78  A    between atoms: _192  and  _193
REMARK   79  A    between atoms: _192  and  _195
REMARK   80  A    between atoms: _195  and  _196
REMARK   81  A    between atoms: _201  and  _203
REMARK   82  A    between atoms: _203  and  _204
REMARK   83  A    between atoms: _203  and  _206
REMARK   84  A    between atoms: _206  and  _207
REMARK   85  A    between atoms: _210  and  _212
REMARK   86  A    between atoms: _212  and  _213
REMARK   87  A    between atoms: _212  and  _215
REMARK   88  A    between atoms: _215  and  _216
REMARK   89  A    between atoms: _221  and  _222
REMARK   90  A    between atoms: _224  and  _226
REMARK   91  A    between atoms: _226  and  _227
REMARK   92  A    between atoms: _226  and  _229
REMARK   93  A    between atoms: _231  and  _233
REMARK   94  A    between atoms: _233  and  _234
REMARK   95  A    between atoms: _233  and  _236
REMARK   96  A    between atoms: _236  and  _237
REMARK   97  A    between atoms: _241  and  _242
REMARK   98  A    between atoms: _247  and  _249
REMARK   99  A    between atoms: _249  and  _250
REMARK  100  A    between atoms: _249  and  _252
REMARK  101  A    between atoms: _252  and  _253
REMARK  102  A    between atoms: _256  and  _258
REMARK  103  A    between atoms: _258  and  _259
REMARK  104  A    between atoms: _258  and  _261
REMARK  105  A    between atoms: _261  and  _262
REMARK  106  A    between atoms: _265  and  _267
REMARK  107  A    between atoms: _267  and  _268
REMARK  108  A    between atoms: _267  and  _270
REMARK  109  A    between atoms: _270  and  _271
REMARK  110  A    between atoms: _271  and  _272
REMARK  111  A    between atoms: _272  and  ZN_345
REMARK  112  A    between atoms: _274  and  _276
REMARK  113  A    between atoms: _276  and  _277
REMARK  114  A    between atoms: _276  and  _279
REMARK  115  A    between atoms: _279  and  _280
REMARK  116  A    between atoms: _282  and  _284
REMARK  117  A    between atoms: _284  and  _285
REMARK  118  A    between atoms: _289  and  _290
REMARK  119  A    between atoms: _295  and  _297
REMARK  120  A    between atoms: _297  and  _298
REMARK  121  A    between atoms: _297  and  _300
REMARK  122  A    between atoms: _300  and  _301
REMARK  123  A    between atoms: _306  and  _308
REMARK  124  A    between atoms: _308  and  _309
REMARK  125  A    between atoms: _308  and  _311
REMARK  126  A    between atoms: _311  and  _312
REMARK  127  A    between atoms: _312  and  _313
REMARK  128  A    between atoms: _313  and  _314
REMARK  129  A    between atoms: _314  and  _315
REMARK  130  A    between atoms: _319  and  _321
REMARK  131  A    between atoms: _321  and  _322
REMARK  132  A    between atoms: _321  and  _324
REMARK  133  A    between atoms: _326  and  _328
REMARK  134  A    between atoms: _328  and  _329
REMARK  135  A    between atoms: _332  and  _334
REMARK  136  A    between atoms: _334  and  _335
REMARK  137  A    between atoms: _337  and  _339
REMARK  138  A    between atoms: _339  and  _340
REMARK  139  A    between atoms: _339  and  _342
REMARK                            x       y       z     vdW  Elec       q    Type
REMARK                         _______ _______ _______ _____ _____    ______ ____
ROOT
ATOM      1  CA  MET A   1      31.258  47.682  76.979  0.00  0.00    +0.134 C 
ENDROOT
BRANCH   1   2
ATOM      2  N   MET A   1      30.719  48.067  78.286  0.00  0.00    -0.239 NA
ATOM      3  H   MET A   1      29.864  47.587  78.632  0.00  0.00    +0.142 HD
ENDBRANCH   1   2
BRANCH   1   4
ATOM      4  C   MET A   1      31.029  48.810  75.937  0.00  0.00    +0.224 C 
ATOM      5  O   MET A   1      30.100  49.637  76.110  0.00  0.00    -0.287 OA
ENDBRANCH   1   4
BRANCH   1   6
ATOM      6  CB  MET A   1      30.687  46.335  76.553  0.00  0.00    +0.037 C 
BRANCH   6   7
ATOM      7  CG  MET A   1      31.210  45.197  77.383  0.00  0.00    +0.059 C 
BRANCH   7   8
ATOM      8  SD  MET A   1      33.023  45.221  77.413  0.00  0.00    -0.139 S 
ATOM      9  CE  MET A   1      33.373  43.771  78.389  0.00  0.00    +0.069 C 
ENDBRANCH   7   8
ENDBRANCH   6   7
ENDBRANCH   1   6
TORSDOF 5
REMARK  Name = ../refined-set-2016/2eg7/2eg7_pocket.pdb
REMARK  139 active torsions:
REMARK  status: ('A' for Active; 'I' for Inactive)
REMARK    1  A    between atoms: _1  and  _3
REMARK    2  A    between atoms: _14  and  _17
REMARK    3  A    between atoms: _17  and  _18
REMARK    4  A    between atoms: _23  and  _24
REMARK    5  A    between atoms: _32  and  _34
REMARK    6  A    between atoms: _34  and  _35
REMARK    7  A    between atoms: _34  and  _37
REMARK    8  A    between atoms: _37  and  _38
REMARK    9  A    between atoms: _41  and  _43
REMARK   10  A    between atoms: _43  and  _44
REMARK   11  A    between atoms: _43  and  _46
REMARK   12  A    between atoms: _46  and  _47
REMARK   13  A    between atoms: _47  and  _48
REMARK   14  A    between atoms: _48  and  _49
REMARK   15  A    between atoms: _58  and  _60
REMARK   16  A    between atoms: _60  and  _61
REMARK   17  A    between atoms: _60  and  _63
REMARK   18  A    between atoms: _63  and  _64
REMARK   19  A    between atoms: _64  and  _65
REMARK   20  A    between atoms: _67  and  _69
REMARK   21  A    between atoms: _69  and  _70
REMARK   22  A    between atoms: _69  and  _72
REMARK   23  A    between atoms: _72  and  _73
REMARK   24  A    between atoms: _78  and  _80
REMARK   25  A    between atoms: _80  and  _81
REMARK   26  A    between atoms: _80  and  _83
REMARK   27  A    between atoms: _83  and  _84
REMARK   28  A    between atoms: _87  and  _89
REMARK   29  A    between atoms: _89  and  _90
REMARK   30  A    between atoms: _89  and  _96
REMARK   31  A    between atoms: _90  and  _91
REMARK   32  A    between atoms: _91  and  _92
REMARK   33  A    between atoms: _92  and  _93
REMARK   34  A    between atoms: _93  and  _94
REMARK   35  A    between atoms: _94  and  _98
REMARK   36  A    between atoms: _98  and  _99
REMARK   37  A    between atoms: _98  and  _100
REMARK   38  A    between atoms: _99  and  ZN_344
REMARK   39  A    between atoms: _100  and  ZN_345
REMARK   40  A    between atoms: _101  and  _103
REMARK   41  A    between atoms: _103  and  _104
REMARK   42  A    between atoms: _103  and  _106
REMARK   43  A    between atoms: _106  and  _107
REMARK   44  A    between atoms: _112  and  _113
REMARK   45  A    between atoms: _116  and  _117
REMARK   46  A    between atoms: _122  and  _124
REMARK   47  A    between atoms: _124  and  _125
REMARK   48  A    between atoms: _124  and  _127
REMARK   49  A    between atoms: _127  and  _128
REMARK   50  A    between atoms: _129  and  ZN_344
REMARK   51  A    between atoms: _133  and  _135
REMARK   52  A    between atoms: _135  and  _136
REMARK   53  A    between atoms: _138  and  _140
REMARK   54  A    between atoms: _140  and  _141
REMARK   55  A    between atoms: _140  and  _143
REMARK   56  A    between atoms: _143  and  _144
REMARK   57  A    between atoms: _144  and  _145
REMARK   58  A    between atoms: _148  and  _150
REMARK   59  A    between atoms: _150  and  _151
REMARK   60  A    between atoms: _150  and  _153
REMARK   61  A    between atoms: _153  and  _154
REMARK   62  A    between atoms: _154  and  _155
REMARK   63  A    between atoms: _158  and  _160
REMARK   64  A    between atoms: _160  and  _161
REMARK   65  A    between atoms: _160  and  _163
REMARK   66  A    between atoms: _163  and  _164
REMARK   67  A    between atoms: _168  and  ZN_344
REMARK   68  A    between atoms: _169  and  _171
REMARK   69  A    between atoms: _171  and  _172
REMARK   70  A    between atoms: _171  and  _174
REMARK   71  A    between atoms: _174  and  _175
REMARK   72  A    between atoms: _178  and  _180
REMARK   73  A    between atoms: _180  and  _181
REMARK   74  A    between atoms: _180  and  _183
REMARK   75  A    between atoms: _183  and  _184
REMARK   76  A    between atoms: _184  and  _185
REMARK   77  A    between atoms: _190  and  _192
REMARK   78  A    between atoms: _192  and  _193
REMARK   79  A    between atoms: _192  and  _195
REMARK   80  A    between atoms: _195  and  _196
REMARK   81  A    between atoms: _201  and  _203
REMARK   82  A    between atoms: _203  and  _204
REMARK   83  A    between atoms: _203  and  _206
REMARK   84  A    between atoms: _206  and  _207
REMARK   85  A    between atoms: _210  and  _212
REMARK   86  A    between atoms: _212  and  _213
REMARK   87  A    between atoms: _212  and  _215
REMARK   88  A    between atoms: _215  and  _216
REMARK   89  A    between atoms: _221  and  _222
REMARK   90  A    between atoms: _224  and  _226
REMARK   91  A    between atoms: _226  and  _227
REMARK   92  A    between atoms: _226  and  _229
REMARK   93  A    between atoms: _231  and  _233
REMARK   94  A    between atoms: _233  and  _234
REMARK   95  A    between atoms: _233  and  _236
REMARK   96  A    between atoms: _236  and  _237
REMARK   97  A    between atoms: _241  and  _242
REMARK   98  A    between atoms: _247  and  _249
REMARK   99  A    between atoms: _249  and  _250
REMARK  100  A    between atoms: _249  and  _252
REMARK  101  A    between atoms: _252  and  _253
REMARK  102  A    between atoms: _256  and  _258
REMARK  103  A    between atoms: _258  and  _259
REMARK  104  A    between atoms: _258  and  _261
REMARK  105  A    between atoms: _261  and  _262
REMARK  106  A    between atoms: _265  and  _267
REMARK  107  A    between atoms: _267  and  _268
REMARK  108  A    between atoms: _267  and  _270
REMARK  109  A    between atoms: _270  and  _271
REMARK  110  A    between atoms: _271  and  _272
REMARK  111  A    between atoms: _272  and  ZN_345
REMARK  112  A    between atoms: _274  and  _276
REMARK  113  A    between atoms: _276  and  _277
REMARK  114  A    between atoms: _276  and  _279
REMARK  115  A    between atoms: _279  and  _280
REMARK  116  A    between atoms: _282  and  _284
REMARK  117  A    between atoms: _284  and  _285
REMARK  118  A    between atoms: _289  and  _290
REMARK  119  A    between atoms: _295  and  _297
REMARK  120  A    between atoms: _297  and  _298
REMARK  121  A    between atoms: _297  and  _300
REMARK  122  A    between atoms: _300  and  _301
REMARK  123  A    between atoms: _306  and  _308
REMARK  124  A    between atoms: _308  and  _309
REMARK  125  A    between atoms: _308  and  _311
REMARK  126  A    between atoms: _311  and  _312
REMARK  127  A    between atoms: _312  and  _313
REMARK  128  A    between atoms: _313  and  _314
REMARK  129  A    between atoms: _314  and  _315
REMARK  130  A    between atoms: _319  and  _321
REMARK  131  A    between atoms: _321  and  _322
REMARK  132  A    between atoms: _321  and  _324
REMARK  133  A    between atoms: _326  and  _328
REMARK  134  A    between atoms: _328  and  _329
REMARK  135  A    between atoms: _332  and  _334
REMARK  136  A    between atoms: _334  and  _335
REMARK  137  A    between atoms: _337  and  _339
REMARK  138  A    between atoms: _339  and  _340
REMARK  139  A    between atoms: _339  and  _342
REMARK                            x       y       z     vdW  Elec       q    Type
REMARK                         _______ _______ _______ _____ _____    ______ ____
ROOT
ATOM      1  C   ASN A   1      28.669  49.449  70.906  0.00  0.00    +0.239 C 
ATOM      2  N   LEU A   2      28.723  50.761  71.034  0.00  0.00    -0.298 N 
ATOM      3  H   LEU A   2      29.559  51.184  71.485  0.00  0.00    +0.150 HD
ATOM      4  O   ASN A   1      27.687  48.868  70.541  0.00  0.00    -0.274 OA
ENDROOT
BRANCH   1   5
ATOM      5  CA  ASN A   1      29.946  48.677  71.211  0.00  0.00    +0.154 C 
BRANCH   5   6
ATOM      6  N   ASN A   1      30.479  48.981  72.527  0.00  0.00    -0.238 NA
ATOM      7  H   ASN A   1      30.217  48.371  73.327  0.00  0.00    +0.142 HD
ENDBRANCH   5   6
BRANCH   5   8
ATOM      8  CB  ASN A   1      29.714  47.156  71.016  0.00  0.00    +0.111 C 
BRANCH   8   9
ATOM      9  CG  ASN A   1      28.720  46.572  72.009  0.00  0.00    +0.221 C 
ATOM     10  OD1 ASN A   1      28.478  47.155  73.076  0.00  0.00    -0.275 OA
ATOM     11  ND2 ASN A   1      28.173  45.396  71.684  0.00  0.00    -0.329 N 
ATOM     12 HD21 ASN A   1      27.513  44.931  72.339  0.00  0.00    +0.145 HD
ATOM     13 HD22 ASN A   1      28.408  44.946  70.776  0.00  0.00    +0.145 HD
ENDBRANCH   8   9
ENDBRANCH   5   8
ENDBRANCH   1   5
BRANCH   2  14
ATOM     14  CA  LEU A   2      27.658  51.641  70.569  0.00  0.00    +0.137 C 
BRANCH  14  15
ATOM     15  C   LEU A   2      27.788  51.789  69.060  0.00  0.00    +0.227 C 
ATOM     16  O   LEU A   2      28.767  51.338  68.469  0.00  0.00    -0.286 OA
ENDBRANCH  14  15
BRANCH  14  17
ATOM     17  CB  LEU A   2      27.774  53.026  71.233  0.00  0.00    +0.028 C 
BRANCH  17  18
ATOM     18  CG  LEU A   2      27.781  53.052  72.776  0.00  0.00    +0.002 C 
ATOM     19  CD2 LEU A   2      26.623  52.217  73.361  0.00  0.00    +0.000 C 
ATOM     20  CD1 LEU A   2      27.749  54.498  73.319  0.00  0.00    +0.000 C 
ENDBRANCH  17  18
ENDBRANCH  14  17
ENDBRANCH   2  14
TORSDOF 8
REMARK  Name = ../refined-set-2016/2eg7/2eg7_pocket.pdb
REMARK  139 active torsions:
REMARK  status: ('A' for Active; 'I' for Inactive)
REMARK    1  A    between atoms: _1  and  _3
REMARK    2  A    between atoms: _14  and  _17
REMARK    3  A    between atoms: _17  and  _18
REMARK    4  A    between atoms: _23  and  _24
REMARK    5  A    between atoms: _32  and  _34
REMARK    6  A    between atoms: _34  and  _35
REMARK    7  A    between atoms: _34  and  _37
REMARK    8  A    between atoms: _37  and  _38
REMARK    9  A    between atoms: _41  and  _43
REMARK   10  A    between atoms: _43  and  _44
REMARK   11  A    between atoms: _43  and  _46
REMARK   12  A    between atoms: _46  and  _47
REMARK   13  A    between atoms: _47  and  _48
REMARK   14  A    between atoms: _48  and  _49
REMARK   15  A    between atoms: _58  and  _60
REMARK   16  A    between atoms: _60  and  _61
REMARK   17  A    between atoms: _60  and  _63
REMARK   18  A    between atoms: _63  and  _64
REMARK   19  A    between atoms: _64  and  _65
REMARK   20  A    between atoms: _67  and  _69
REMARK   21  A    between atoms: _69  and  _70
REMARK   22  A    between atoms: _69  and  _72
REMARK   23  A    between atoms: _72  and  _73
REMARK   24  A    between atoms: _78  and  _80
REMARK   25  A    between atoms: _80  and  _81
REMARK   26  A    between atoms: _80  and  _83
REMARK   27  A    between atoms: _83  and  _84
REMARK   28  A    between atoms: _87  and  _89
REMARK   29  A    between atoms: _89  and  _90
REMARK   30  A    between atoms: _89  and  _96
REMARK   31  A    between atoms: _90  and  _91
REMARK   32  A    between atoms: _91  and  _92
REMARK   33  A    between atoms: _92  and  _93
REMARK   34  A    between atoms: _93  and  _94
REMARK   35  A    between atoms: _94  and  _98
REMARK   36  A    between atoms: _98  and  _99
REMARK   37  A    between atoms: _98  and  _100
REMARK   38  A    between atoms: _99  and  ZN_344
REMARK   39  A    between atoms: _100  and  ZN_345
REMARK   40  A    between atoms: _101  and  _103
REMARK   41  A    between atoms: _103  and  _104
REMARK   42  A    between atoms: _103  and  _106
REMARK   43  A    between atoms: _106  and  _107
REMARK   44  A    between atoms: _112  and  _113
REMARK   45  A    between atoms: _116  and  _117
REMARK   46  A    between atoms: _122  and  _124
REMARK   47  A    between atoms: _124  and  _125
REMARK   48  A    between atoms: _124  and  _127
REMARK   49  A    between atoms: _127  and  _128
REMARK   50  A    between atoms: _129  and  ZN_344
REMARK   51  A    between atoms: _133  and  _135
REMARK   52  A    between atoms: _135  and  _136
REMARK   53  A    between atoms: _138  and  _140
REMARK   54  A    between atoms: _140  and  _141
REMARK   55  A    between atoms: _140  and  _143
REMARK   56  A    between atoms: _143  and  _144
REMARK   57  A    between atoms: _144  and  _145
REMARK   58  A    between atoms: _148  and  _150
REMARK   59  A    between atoms: _150  and  _151
REMARK   60  A    between atoms: _150  and  _153
REMARK   61  A    between atoms: _153  and  _154
REMARK   62  A    between atoms: _154  and  _155
REMARK   63  A    between atoms: _158  and  _160
REMARK   64  A    between atoms: _160  and  _161
REMARK   65  A    between atoms: _160  and  _163
REMARK   66  A    between atoms: _163  and  _164
REMARK   67  A    between atoms: _168  and  ZN_344
REMARK   68  A    between atoms: _169  and  _171
REMARK   69  A    between atoms: _171  and  _172
REMARK   70  A    between atoms: _171  and  _174
REMARK   71  A    between atoms: _174  and  _175
REMARK   72  A    between atoms: _178  and  _180
REMARK   73  A    between atoms: _180  and  _181
REMARK   74  A    between atoms: _180  and  _183
REMARK   75  A    between atoms: _183  and  _184
REMARK   76  A    between atoms: _184  and  _185
REMARK   77  A    between atoms: _190  and  _192
REMARK   78  A    between atoms: _192  and  _193
REMARK   79  A    between atoms: _192  and  _195
REMARK   80  A    between atoms: _195  and  _196
REMARK   81  A    between atoms: _201  and  _203
REMARK   82  A    between atoms: _203  and  _204
REMARK   83  A    between atoms: _203  and  _206
REMARK   84  A    between atoms: _206  and  _207
REMARK   85  A    between atoms: _210  and  _212
REMARK   86  A    between atoms: _212  and  _213
REMARK   87  A    between atoms: _212  and  _215
REMARK   88  A    between atoms: _215  and  _216
REMARK   89  A    between atoms: _221  and  _222
REMARK   90  A    between atoms: _224  and  _226
REMARK   91  A    between atoms: _226  and  _227
REMARK   92  A    between atoms: _226  and  _229
REMARK   93  A    between atoms: _231  and  _233
REMARK   94  A    between atoms: _233  and  _234
REMARK   95  A    between atoms: _233  and  _236
REMARK   96  A    between atoms: _236  and  _237
REMARK   97  A    between atoms: _241  and  _242
REMARK   98  A    between atoms: _247  and  _249
REMARK   99  A    between atoms: _249  and  _250
REMARK  100  A    between atoms: _249  and  _252
REMARK  101  A    between atoms: _252  and  _253
REMARK  102  A    between atoms: _256  and  _258
REMARK  103  A    between atoms: _258  and  _259
REMARK  104  A    between atoms: _258  and  _261
REMARK  105  A    between atoms: _261  and  _262
REMARK  106  A    between atoms: _265  and  _267
REMARK  107  A    between atoms: _267  and  _268
REMARK  108  A    between atoms: _267  and  _270
REMARK  109  A    between atoms: _270  and  _271
REMARK  110  A    between atoms: _271  and  _272
REMARK  111  A    between atoms: _272  and  ZN_345
REMARK  112  A    between atoms: _274  and  _276
REMARK  113  A    between atoms: _276  and  _277
REMARK  114  A    between atoms: _276  and  _279
REMARK  115  A    between atoms: _279  and  _280
REMARK  116  A    between atoms: _282  and  _284
REMARK  117  A    between atoms: _284  and  _285
REMARK  118  A    between atoms: _289  and  _290
REMARK  119  A    between atoms: _295  and  _297
REMARK  120  A    between atoms: _297  and  _298
REMARK  121  A    between atoms: _297  and  _300
REMARK  122  A    between atoms: _300  and  _301
REMARK  123  A    between atoms: _306  and  _308
REMARK  124  A    between atoms: _308  and  _309
REMARK  125  A    between atoms: _308  and  _311
REMARK  126  A    between atoms: _311  and  _312
REMARK  127  A    between atoms: _312  and  _313
REMARK  128  A    between atoms: _313  and  _314
REMARK  129  A    between atoms: _314  and  _315
REMARK  130  A    between atoms: _319  and  _321
REMARK  131  A    between atoms: _321  and  _322
REMARK  132  A    between atoms: _321  and  _324
REMARK  133  A    between atoms: _326  and  _328
REMARK  134  A    between atoms: _328  and  _329
REMARK  135  A    between atoms: _332  and  _334
REMARK  136  A    between atoms: _334  and  _335
REMARK  137  A    between atoms: _337  and  _339
REMARK  138  A    between atoms: _339  and  _340
REMARK  139  A    between atoms: _339  and  _342
REMARK                            x       y       z     vdW  Elec       q    Type
REMARK                         _______ _______ _______ _____ _____    ______ ____
ROOT
ATOM      1  CA  TYR A   1      35.897  42.077  69.295  0.00  0.00    +0.149 C 
ENDROOT
BRANCH   1   2
ATOM      2  C   TYR A   1      36.506  41.322  68.127  0.00  0.00    +0.242 C 
ATOM      3  N   PRO A   2      35.836  40.241  67.686  0.00  0.00    -0.273 N 
ATOM      4  CD  PRO A   2      34.570  39.668  68.182  0.00  0.00    +0.094 C 
ATOM      5  CG  PRO A   2      34.602  38.254  67.603  0.00  0.00    +0.024 C 
ATOM      6  CB  PRO A   2      35.257  38.433  66.315  0.00  0.00    +0.030 C 
ATOM      7  CA  PRO A   2      36.398  39.401  66.634  0.00  0.00    +0.140 C 
ATOM      8  O   TYR A   1      37.605  41.671  67.666  0.00  0.00    -0.273 OA
BRANCH   7   9
ATOM      9  C   PRO A   2      36.828  40.150  65.405  0.00  0.00    +0.227 C 
ATOM     10  O   PRO A   2      36.152  41.087  64.965  0.00  0.00    -0.286 OA
ENDBRANCH   7   9
ENDBRANCH   1   2
BRANCH   1  11
ATOM     11  N   TYR A   1      36.935  42.867  69.941  0.00  0.00    -0.238 NA
ATOM     12  H   TYR A   1      37.125  43.825  69.584  0.00  0.00    +0.142 HD
ENDBRANCH   1  11
BRANCH   1  13
ATOM     13  CB  TYR A   1      34.754  42.980  68.848  0.00  0.00    +0.053 C 
BRANCH  13  14
ATOM     14  CG  TYR A   1      33.889  43.456  70.008  0.00  0.00    -0.020 A 
ATOM     15  CD2 TYR A   1      32.917  42.634  70.551  0.00  0.00    -0.001 A 
ATOM     16  CE2 TYR A   1      32.092  43.074  71.589  0.00  0.00    +0.036 A 
ATOM     17  CZ  TYR A   1      32.260  44.346  72.107  0.00  0.00    +0.134 A 
ATOM     18  CE1 TYR A   1      33.250  45.183  71.594  0.00  0.00    +0.036 A 
ATOM     19  CD1 TYR A   1      34.044  44.740  70.542  0.00  0.00    -0.001 A 
BRANCH  17  20
ATOM     20  OH  TYR A   1      31.459  44.782  73.148  0.00  0.00    -0.506 OA
ATOM     21  HH  TYR A   1      31.583  44.187  73.930  0.00  0.00    +0.292 HD
ENDBRANCH  17  20
ENDBRANCH  13  14
ENDBRANCH   1  13
TORSDOF 6
REMARK  Name = ../refined-set-2016/2eg7/2eg7_pocket.pdb
REMARK  139 active torsions:
REMARK  status: ('A' for Active; 'I' for Inactive)
REMARK    1  A    between atoms: _1  and  _3
REMARK    2  A    between atoms: _14  and  _17
REMARK    3  A    between atoms: _17  and  _18
REMARK    4  A    between atoms: _23  and  _24
REMARK    5  A    between atoms: _32  and  _34
REMARK    6  A    between atoms: _34  and  _35
REMARK    7  A    between atoms: _34  and  _37
REMARK    8  A    between atoms: _37  and  _38
REMARK    9  A    between atoms: _41  and  _43
REMARK   10  A    between atoms: _43  and  _44
REMARK   11  A    between atoms: _43  and  _46
REMARK   12  A    between atoms: _46  and  _47
REMARK   13  A    between atoms: _47  and  _48
REMARK   14  A    between atoms: _48  and  _49
REMARK   15  A    between atoms: _58  and  _60
REMARK   16  A    between atoms: _60  and  _61
REMARK   17  A    between atoms: _60  and  _63
REMARK   18  A    between atoms: _63  and  _64
REMARK   19  A    between atoms: _64  and  _65
REMARK   20  A    between atoms: _67  and  _69
REMARK   21  A    between atoms: _69  and  _70
REMARK   22  A    between atoms: _69  and  _72
REMARK   23  A    between atoms: _72  and  _73
REMARK   24  A    between atoms: _78  and  _80
REMARK   25  A    between atoms: _80  and  _81
REMARK   26  A    between atoms: _80  and  _83
REMARK   27  A    between atoms: _83  and  _84
REMARK   28  A    between atoms: _87  and  _89
REMARK   29  A    between atoms: _89  and  _90
REMARK   30  A    between atoms: _89  and  _96
REMARK   31  A    between atoms: _90  and  _91
REMARK   32  A    between atoms: _91  and  _92
REMARK   33  A    between atoms: _92  and  _93
REMARK   34  A    between atoms: _93  and  _94
REMARK   35  A    between atoms: _94  and  _98
REMARK   36  A    between atoms: _98  and  _99
REMARK   37  A    between atoms: _98  and  _100
REMARK   38  A    between atoms: _99  and  ZN_344
REMARK   39  A    between atoms: _100  and  ZN_345
REMARK   40  A    between atoms: _101  and  _103
REMARK   41  A    between atoms: _103  and  _104
REMARK   42  A    between atoms: _103  and  _106
REMARK   43  A    between atoms: _106  and  _107
REMARK   44  A    between atoms: _112  and  _113
REMARK   45  A    between atoms: _116  and  _117
REMARK   46  A    between atoms: _122  and  _124
REMARK   47  A    between atoms: _124  and  _125
REMARK   48  A    between atoms: _124  and  _127
REMARK   49  A    between atoms: _127  and  _128
REMARK   50  A    between atoms: _129  and  ZN_344
REMARK   51  A    between atoms: _133  and  _135
REMARK   52  A    between atoms: _135  and  _136
REMARK   53  A    between atoms: _138  and  _140
REMARK   54  A    between atoms: _140  and  _141
REMARK   55  A    between atoms: _140  and  _143
REMARK   56  A    between atoms: _143  and  _144
REMARK   57  A    between atoms: _144  and  _145
REMARK   58  A    between atoms: _148  and  _150
REMARK   59  A    between atoms: _150  and  _151
REMARK   60  A    between atoms: _150  and  _153
REMARK   61  A    between atoms: _153  and  _154
REMARK   62  A    between atoms: _154  and  _155
REMARK   63  A    between atoms: _158  and  _160
REMARK   64  A    between atoms: _160  and  _161
REMARK   65  A    between atoms: _160  and  _163
REMARK   66  A    between atoms: _163  and  _164
REMARK   67  A    between atoms: _168  and  ZN_344
REMARK   68  A    between atoms: _169  and  _171
REMARK   69  A    between atoms: _171  and  _172
REMARK   70  A    between atoms: _171  and  _174
REMARK   71  A    between atoms: _174  and  _175
REMARK   72  A    between atoms: _178  and  _180
REMARK   73  A    between atoms: _180  and  _181
REMARK   74  A    between atoms: _180  and  _183
REMARK   75  A    between atoms: _183  and  _184
REMARK   76  A    between atoms: _184  and  _185
REMARK   77  A    between atoms: _190  and  _192
REMARK   78  A    between atoms: _192  and  _193
REMARK   79  A    between atoms: _192  and  _195
REMARK   80  A    between atoms: _195  and  _196
REMARK   81  A    between atoms: _201  and  _203
REMARK   82  A    between atoms: _203  and  _204
REMARK   83  A    between atoms: _203  and  _206
REMARK   84  A    between atoms: _206  and  _207
REMARK   85  A    between atoms: _210  and  _212
REMARK   86  A    between atoms: _212  and  _213
REMARK   87  A    between atoms: _212  and  _215
REMARK   88  A    between atoms: _215  and  _216
REMARK   89  A    between atoms: _221  and  _222
REMARK   90  A    between atoms: _224  and  _226
REMARK   91  A    between atoms: _226  and  _227
REMARK   92  A    between atoms: _226  and  _229
REMARK   93  A    between atoms: _231  and  _233
REMARK   94  A    between atoms: _233  and  _234
REMARK   95  A    between atoms: _233  and  _236
REMARK   96  A    between atoms: _236  and  _237
REMARK   97  A    between atoms: _241  and  _242
REMARK   98  A    between atoms: _247  and  _249
REMARK   99  A    between atoms: _249  and  _250
REMARK  100  A    between atoms: _249  and  _252
REMARK  101  A    between atoms: _252  and  _253
REMARK  102  A    between atoms: _256  and  _258
REMARK  103  A    between atoms: _258  and  _259
REMARK  104  A    between atoms: _258  and  _261
REMARK  105  A    between atoms: _261  and  _262
REMARK  106  A    between atoms: _265  and  _267
REMARK  107  A    between atoms: _267  and  _268
REMARK  108  A    between atoms: _267  and  _270
REMARK  109  A    between atoms: _270  and  _271
REMARK  110  A    between atoms: _271  and  _272
REMARK  111  A    between atoms: _272  and  ZN_345
REMARK  112  A    between atoms: _274  and  _276
REMARK  113  A    between atoms: _276  and  _277
REMARK  114  A    between atoms: _276  and  _279
REMARK  115  A    between atoms: _279  and  _280
REMARK  116  A    between atoms: _282  and  _284
REMARK  117  A    between atoms: _284  and  _285
REMARK  118  A    between atoms: _289  and  _290
REMARK  119  A    between atoms: _295  and  _297
REMARK  120  A    between atoms: _297  and  _298
REMARK  121  A    between atoms: _297  and  _300
REMARK  122  A    between atoms: _300  and  _301
REMARK  123  A    between atoms: _306  and  _308
REMARK  124  A    between atoms: _308  and  _309
REMARK  125  A    between atoms: _308  and  _311
REMARK  126  A    between atoms: _311  and  _312
REMARK  127  A    between atoms: _312  and  _313
REMARK  128  A    between atoms: _313  and  _314
REMARK  129  A    between atoms: _314  and  _315
REMARK  130  A    between atoms: _319  and  _321
REMARK  131  A    between atoms: _321  and  _322
REMARK  132  A    between atoms: _321  and  _324
REMARK  133  A    between atoms: _326  and  _328
REMARK  134  A    between atoms: _328  and  _329
REMARK  135  A    between atoms: _332  and  _334
REMARK  136  A    between atoms: _334  and  _335
REMARK  137  A    between atoms: _337  and  _339
REMARK  138  A    between atoms: _339  and  _340
REMARK  139  A    between atoms: _339  and  _342
REMARK                            x       y       z     vdW  Elec       q    Type
REMARK                         _______ _______ _______ _____ _____    ______ ____
ROOT
ATOM      1  CA  THR A   1      27.283  34.698  82.409  0.00  0.00    +0.160 C 
ENDROOT
BRANCH   1   2
ATOM      2  N   THR A   1      28.666  34.208  82.304  0.00  0.00    -0.237 NA
ATOM      3  H   THR A   1      28.949  33.704  81.439  0.00  0.00    +0.142 HD
ENDBRANCH   1   2
BRANCH   1   4
ATOM      4  C   THR A   1      26.443  33.734  83.194  0.00  0.00    +0.227 C 
ATOM      5  O   THR A   1      26.788  32.570  83.278  0.00  0.00    -0.287 OA
ENDBRANCH   1   4
BRANCH   1   6
ATOM      6  CB  THR A   1      26.632  34.823  81.036  0.00  0.00    +0.134 C 
ATOM      7  CG2 THR A   1      27.480  35.721  80.147  0.00  0.00    +0.034 C 
BRANCH   6   8
ATOM      8  OG1 THR A   1      26.508  33.506  80.423  0.00  0.00    -0.383 OA
ATOM      9  HG1 THR A   1      26.085  33.596  79.533  0.00  0.00    +0.210 HD
ENDBRANCH   6   8
ENDBRANCH   1   6
TORSDOF 4
REMARK  Name = ../refined-set-2016/2eg7/2eg7_pocket.pdb
REMARK  139 active torsions:
REMARK  status: ('A' for Active; 'I' for Inactive)
REMARK    1  A    between atoms: _1  and  _3
REMARK    2  A    between atoms: _14  and  _17
REMARK    3  A    between atoms: _17  and  _18
REMARK    4  A    between atoms: _23  and  _24
REMARK    5  A    between atoms: _32  and  _34
REMARK    6  A    between atoms: _34  and  _35
REMARK    7  A    between atoms: _34  and  _37
REMARK    8  A    between atoms: _37  and  _38
REMARK    9  A    between atoms: _41  and  _43
REMARK   10  A    between atoms: _43  and  _44
REMARK   11  A    between atoms: _43  and  _46
REMARK   12  A    between atoms: _46  and  _47
REMARK   13  A    between atoms: _47  and  _48
REMARK   14  A    between atoms: _48  and  _49
REMARK   15  A    between atoms: _58  and  _60
REMARK   16  A    between atoms: _60  and  _61
REMARK   17  A    between atoms: _60  and  _63
REMARK   18  A    between atoms: _63  and  _64
REMARK   19  A    between atoms: _64  and  _65
REMARK   20  A    between atoms: _67  and  _69
REMARK   21  A    between atoms: _69  and  _70
REMARK   22  A    between atoms: _69  and  _72
REMARK   23  A    between atoms: _72  and  _73
REMARK   24  A    between atoms: _78  and  _80
REMARK   25  A    between atoms: _80  and  _81
REMARK   26  A    between atoms: _80  and  _83
REMARK   27  A    between atoms: _83  and  _84
REMARK   28  A    between atoms: _87  and  _89
REMARK   29  A    between atoms: _89  and  _90
REMARK   30  A    between atoms: _89  and  _96
REMARK   31  A    between atoms: _90  and  _91
REMARK   32  A    between atoms: _91  and  _92
REMARK   33  A    between atoms: _92  and  _93
REMARK   34  A    between atoms: _93  and  _94
REMARK   35  A    between atoms: _94  and  _98
REMARK   36  A    between atoms: _98  and  _99
REMARK   37  A    between atoms: _98  and  _100
REMARK   38  A    between atoms: _99  and  ZN_344
REMARK   39  A    between atoms: _100  and  ZN_345
REMARK   40  A    between atoms: _101  and  _103
REMARK   41  A    between atoms: _103  and  _104
REMARK   42  A    between atoms: _103  and  _106
REMARK   43  A    between atoms: _106  and  _107
REMARK   44  A    between atoms: _112  and  _113
REMARK   45  A    between atoms: _116  and  _117
REMARK   46  A    between atoms: _122  and  _124
REMARK   47  A    between atoms: _124  and  _125
REMARK   48  A    between atoms: _124  and  _127
REMARK   49  A    between atoms: _127  and  _128
REMARK   50  A    between atoms: _129  and  ZN_344
REMARK   51  A    between atoms: _133  and  _135
REMARK   52  A    between atoms: _135  and  _136
REMARK   53  A    between atoms: _138  and  _140
REMARK   54  A    between atoms: _140  and  _141
REMARK   55  A    between atoms: _140  and  _143
REMARK   56  A    between atoms: _143  and  _144
REMARK   57  A    between atoms: _144  and  _145
REMARK   58  A    between atoms: _148  and  _150
REMARK   59  A    between atoms: _150  and  _151
REMARK   60  A    between atoms: _150  and  _153
REMARK   61  A    between atoms: _153  and  _154
REMARK   62  A    between atoms: _154  and  _155
REMARK   63  A    between atoms: _158  and  _160
REMARK   64  A    between atoms: _160  and  _161
REMARK   65  A    between atoms: _160  and  _163
REMARK   66  A    between atoms: _163  and  _164
REMARK   67  A    between atoms: _168  and  ZN_344
REMARK   68  A    between atoms: _169  and  _171
REMARK   69  A    between atoms: _171  and  _172
REMARK   70  A    between atoms: _171  and  _174
REMARK   71  A    between atoms: _174  and  _175
REMARK   72  A    between atoms: _178  and  _180
REMARK   73  A    between atoms: _180  and  _181
REMARK   74  A    between atoms: _180  and  _183
REMARK   75  A    between atoms: _183  and  _184
REMARK   76  A    between atoms: _184  and  _185
REMARK   77  A    between atoms: _190  and  _192
REMARK   78  A    between atoms: _192  and  _193
REMARK   79  A    between atoms: _192  and  _195
REMARK   80  A    between atoms: _195  and  _196
REMARK   81  A    between atoms: _201  and  _203
REMARK   82  A    between atoms: _203  and  _204
REMARK   83  A    between atoms: _203  and  _206
REMARK   84  A    between atoms: _206  and  _207
REMARK   85  A    between atoms: _210  and  _212
REMARK   86  A    between atoms: _212  and  _213
REMARK   87  A    between atoms: _212  and  _215
REMARK   88  A    between atoms: _215  and  _216
REMARK   89  A    between atoms: _221  and  _222
REMARK   90  A    between atoms: _224  and  _226
REMARK   91  A    between atoms: _226  and  _227
REMARK   92  A    between atoms: _226  and  _229
REMARK   93  A    between atoms: _231  and  _233
REMARK   94  A    between atoms: _233  and  _234
REMARK   95  A    between atoms: _233  and  _236
REMARK   96  A    between atoms: _236  and  _237
REMARK   97  A    between atoms: _241  and  _242
REMARK   98  A    between atoms: _247  and  _249
REMARK   99  A    between atoms: _249  and  _250
REMARK  100  A    between atoms: _249  and  _252
REMARK  101  A    between atoms: _252  and  _253
REMARK  102  A    between atoms: _256  and  _258
REMARK  103  A    between atoms: _258  and  _259
REMARK  104  A    between atoms: _258  and  _261
REMARK  105  A    between atoms: _261  and  _262
REMARK  106  A    between atoms: _265  and  _267
REMARK  107  A    between atoms: _267  and  _268
REMARK  108  A    between atoms: _267  and  _270
REMARK  109  A    between atoms: _270  and  _271
REMARK  110  A    between atoms: _271  and  _272
REMARK  111  A    between atoms: _272  and  ZN_345
REMARK  112  A    between atoms: _274  and  _276
REMARK  113  A    between atoms: _276  and  _277
REMARK  114  A    between atoms: _276  and  _279
REMARK  115  A    between atoms: _279  and  _280
REMARK  116  A    between atoms: _282  and  _284
REMARK  117  A    between atoms: _284  and  _285
REMARK  118  A    between atoms: _289  and  _290
REMARK  119  A    between atoms: _295  and  _297
REMARK  120  A    between atoms: _297  and  _298
REMARK  121  A    between atoms: _297  and  _300
REMARK  122  A    between atoms: _300  and  _301
REMARK  123  A    between atoms: _306  and  _308
REMARK  124  A    between atoms: _308  and  _309
REMARK  125  A    between atoms: _308  and  _311
REMARK  126  A    between atoms: _311  and  _312
REMARK  127  A    between atoms: _312  and  _313
REMARK  128  A    between atoms: _313  and  _314
REMARK  129  A    between atoms: _314  and  _315
REMARK  130  A    between atoms: _319  and  _321
REMARK  131  A    between atoms: _321  and  _322
REMARK  132  A    between atoms: _321  and  _324
REMARK  133  A    between atoms: _326  and  _328
REMARK  134  A    between atoms: _328  and  _329
REMARK  135  A    between atoms: _332  and  _334
REMARK  136  A    between atoms: _334  and  _335
REMARK  137  A    between atoms: _337  and  _339
REMARK  138  A    between atoms: _339  and  _340
REMARK  139  A    between atoms: _339  and  _342
REMARK                            x       y       z     vdW  Elec       q    Type
REMARK                         _______ _______ _______ _____ _____    ______ ____
ROOT
ATOM      1  C   GLN A   1      23.679  30.657  80.701  0.00  0.00    +0.238 C 
ATOM      2  O   GLN A   1      23.256  29.519  80.579  0.00  0.00    -0.274 OA
ATOM      3  N   HIS A   2      24.960  30.962  80.546  0.00  0.00    -0.298 N 
ATOM      4  H   HIS A   2      25.275  31.947  80.653  0.00  0.00    +0.150 HD
ENDROOT
BRANCH   1   5
ATOM      5  CA  GLN A   1      22.761  31.800  81.109  0.00  0.00    +0.145 C 
BRANCH   5   6
ATOM      6  N   GLN A   1      23.452  32.695  82.082  0.00  0.00    -0.238 NA
ATOM      7  H   GLN A   1      23.714  33.661  81.799  0.00  0.00    +0.142 HD
ENDBRANCH   5   6
BRANCH   5   8
ATOM      8  CB  GLN A   1      22.222  32.542  79.877  0.00  0.00    +0.036 C 
BRANCH   8   9
ATOM      9  CG  GLN A   1      23.272  33.300  78.968  0.00  0.00    +0.087 C 
BRANCH   9  10
ATOM     10  CD  GLN A   1      23.543  34.716  79.437  0.00  0.00    +0.219 C 
ATOM     11  OE1 GLN A   1      23.185  35.050  80.542  0.00  0.00    -0.275 OA
ATOM     12  NE2 GLN A   1      24.175  35.547  78.589  0.00  0.00    -0.329 N 
ATOM     13 HE21 GLN A   1      24.376  36.527  78.874  0.00  0.00    +0.145 HD
ATOM     14 HE22 GLN A   1      24.463  35.210  77.648  0.00  0.00    +0.145 HD
ENDBRANCH   9  10
ENDBRANCH   8   9
ENDBRANCH   5   8
ENDBRANCH   1   5
BRANCH   3  15
ATOM     15  CA  HIS A   2      25.932  29.914  80.225  0.00  0.00    +0.143 C 
BRANCH  15  16
ATOM     16  C   HIS A   2      26.179  28.917  81.386  0.00  0.00    +0.227 C 
ATOM     17  O   HIS A   2      26.623  27.796  81.172  0.00  0.00    -0.286 OA
ENDBRANCH  15  16
BRANCH  15  18
ATOM     18  CB  HIS A   2      27.214  30.519  79.673  0.00  0.00    +0.075 C 
BRANCH  18  19
ATOM     19  CG  HIS A   2      27.050  31.151  78.316  0.00  0.00    +0.082 A 
ATOM     20  ND1 HIS A   2      27.077  32.513  78.124  0.00  0.00    -0.227 NA
ATOM     21  CE1 HIS A   2      26.932  32.778  76.836  0.00  0.00    +0.199 A 
ATOM     22  NE2 HIS A   2      26.796  31.638  76.181  0.00  0.00    -0.221 NA
ATOM     23  CD2 HIS A   2      26.877  30.601  77.082  0.00  0.00    +0.115 A 
ENDBRANCH  18  19
ENDBRANCH  15  18
ENDBRANCH   3  15
TORSDOF 9
REMARK  Name = ../refined-set-2016/2eg7/2eg7_pocket.pdb
REMARK  139 active torsions:
REMARK  status: ('A' for Active; 'I' for Inactive)
REMARK    1  A    between atoms: _1  and  _3
REMARK    2  A    between atoms: _14  and  _17
REMARK    3  A    between atoms: _17  and  _18
REMARK    4  A    between atoms: _23  and  _24
REMARK    5  A    between atoms: _32  and  _34
REMARK    6  A    between atoms: _34  and  _35
REMARK    7  A    between atoms: _34  and  _37
REMARK    8  A    between atoms: _37  and  _38
REMARK    9  A    between atoms: _41  and  _43
REMARK   10  A    between atoms: _43  and  _44
REMARK   11  A    between atoms: _43  and  _46
REMARK   12  A    between atoms: _46  and  _47
REMARK   13  A    between atoms: _47  and  _48
REMARK   14  A    between atoms: _48  and  _49
REMARK   15  A    between atoms: _58  and  _60
REMARK   16  A    between atoms: _60  and  _61
REMARK   17  A    between atoms: _60  and  _63
REMARK   18  A    between atoms: _63  and  _64
REMARK   19  A    between atoms: _64  and  _65
REMARK   20  A    between atoms: _67  and  _69
REMARK   21  A    between atoms: _69  and  _70
REMARK   22  A    between atoms: _69  and  _72
REMARK   23  A    between atoms: _72  and  _73
REMARK   24  A    between atoms: _78  and  _80
REMARK   25  A    between atoms: _80  and  _81
REMARK   26  A    between atoms: _80  and  _83
REMARK   27  A    between atoms: _83  and  _84
REMARK   28  A    between atoms: _87  and  _89
REMARK   29  A    between atoms: _89  and  _90
REMARK   30  A    between atoms: _89  and  _96
REMARK   31  A    between atoms: _90  and  _91
REMARK   32  A    between atoms: _91  and  _92
REMARK   33  A    between atoms: _92  and  _93
REMARK   34  A    between atoms: _93  and  _94
REMARK   35  A    between atoms: _94  and  _98
REMARK   36  A    between atoms: _98  and  _99
REMARK   37  A    between atoms: _98  and  _100
REMARK   38  A    between atoms: _99  and  ZN_344
REMARK   39  A    between atoms: _100  and  ZN_345
REMARK   40  A    between atoms: _101  and  _103
REMARK   41  A    between atoms: _103  and  _104
REMARK   42  A    between atoms: _103  and  _106
REMARK   43  A    between atoms: _106  and  _107
REMARK   44  A    between atoms: _112  and  _113
REMARK   45  A    between atoms: _116  and  _117
REMARK   46  A    between atoms: _122  and  _124
REMARK   47  A    between atoms: _124  and  _125
REMARK   48  A    between atoms: _124  and  _127
REMARK   49  A    between atoms: _127  and  _128
REMARK   50  A    between atoms: _129  and  ZN_344
REMARK   51  A    between atoms: _133  and  _135
REMARK   52  A    between atoms: _135  and  _136
REMARK   53  A    between atoms: _138  and  _140
REMARK   54  A    between atoms: _140  and  _141
REMARK   55  A    between atoms: _140  and  _143
REMARK   56  A    between atoms: _143  and  _144
REMARK   57  A    between atoms: _144  and  _145
REMARK   58  A    between atoms: _148  and  _150
REMARK   59  A    between atoms: _150  and  _151
REMARK   60  A    between atoms: _150  and  _153
REMARK   61  A    between atoms: _153  and  _154
REMARK   62  A    between atoms: _154  and  _155
REMARK   63  A    between atoms: _158  and  _160
REMARK   64  A    between atoms: _160  and  _161
REMARK   65  A    between atoms: _160  and  _163
REMARK   66  A    between atoms: _163  and  _164
REMARK   67  A    between atoms: _168  and  ZN_344
REMARK   68  A    between atoms: _169  and  _171
REMARK   69  A    between atoms: _171  and  _172
REMARK   70  A    between atoms: _171  and  _174
REMARK   71  A    between atoms: _174  and  _175
REMARK   72  A    between atoms: _178  and  _180
REMARK   73  A    between atoms: _180  and  _181
REMARK   74  A    between atoms: _180  and  _183
REMARK   75  A    between atoms: _183  and  _184
REMARK   76  A    between atoms: _184  and  _185
REMARK   77  A    between atoms: _190  and  _192
REMARK   78  A    between atoms: _192  and  _193
REMARK   79  A    between atoms: _192  and  _195
REMARK   80  A    between atoms: _195  and  _196
REMARK   81  A    between atoms: _201  and  _203
REMARK   82  A    between atoms: _203  and  _204
REMARK   83  A    between atoms: _203  and  _206
REMARK   84  A    between atoms: _206  and  _207
REMARK   85  A    between atoms: _210  and  _212
REMARK   86  A    between atoms: _212  and  _213
REMARK   87  A    between atoms: _212  and  _215
REMARK   88  A    between atoms: _215  and  _216
REMARK   89  A    between atoms: _221  and  _222
REMARK   90  A    between atoms: _224  and  _226
REMARK   91  A    between atoms: _226  and  _227
REMARK   92  A    between atoms: _226  and  _229
REMARK   93  A    between atoms: _231  and  _233
REMARK   94  A    between atoms: _233  and  _234
REMARK   95  A    between atoms: _233  and  _236
REMARK   96  A    between atoms: _236  and  _237
REMARK   97  A    between atoms: _241  and  _242
REMARK   98  A    between atoms: _247  and  _249
REMARK   99  A    between atoms: _249  and  _250
REMARK  100  A    between atoms: _249  and  _252
REMARK  101  A    between atoms: _252  and  _253
REMARK  102  A    between atoms: _256  and  _258
REMARK  103  A    between atoms: _258  and  _259
REMARK  104  A    between atoms: _258  and  _261
REMARK  105  A    between atoms: _261  and  _262
REMARK  106  A    between atoms: _265  and  _267
REMARK  107  A    between atoms: _267  and  _268
REMARK  108  A    between atoms: _267  and  _270
REMARK  109  A    between atoms: _270  and  _271
REMARK  110  A    between atoms: _271  and  _272
REMARK  111  A    between atoms: _272  and  ZN_345
REMARK  112  A    between atoms: _274  and  _276
REMARK  113  A    between atoms: _276  and  _277
REMARK  114  A    between atoms: _276  and  _279
REMARK  115  A    between atoms: _279  and  _280
REMARK  116  A    between atoms: _282  and  _284
REMARK  117  A    between atoms: _284  and  _285
REMARK  118  A    between atoms: _289  and  _290
REMARK  119  A    between atoms: _295  and  _297
REMARK  120  A    between atoms: _297  and  _298
REMARK  121  A    between atoms: _297  and  _300
REMARK  122  A    between atoms: _300  and  _301
REMARK  123  A    between atoms: _306  and  _308
REMARK  124  A    between atoms: _308  and  _309
REMARK  125  A    between atoms: _308  and  _311
REMARK  126  A    between atoms: _311  and  _312
REMARK  127  A    between atoms: _312  and  _313
REMARK  128  A    between atoms: _313  and  _314
REMARK  129  A    between atoms: _314  and  _315
REMARK  130  A    between atoms: _319  and  _321
REMARK  131  A    between atoms: _321  and  _322
REMARK  132  A    between atoms: _321  and  _324
REMARK  133  A    between atoms: _326  and  _328
REMARK  134  A    between atoms: _328  and  _329
REMARK  135  A    between atoms: _332  and  _334
REMARK  136  A    between atoms: _334  and  _335
REMARK  137  A    between atoms: _337  and  _339
REMARK  138  A    between atoms: _339  and  _340
REMARK  139  A    between atoms: _339  and  _342
REMARK                            x       y       z     vdW  Elec       q    Type
REMARK                         _______ _______ _______ _____ _____    ______ ____
ROOT
ATOM      1  CA  CYS A   3      23.106  35.241  72.554  0.00  0.00    +0.160 C 
ENDROOT
BRANCH   1   3
ATOM      2  C   TYR A   2      20.782  34.547  72.155  0.00  0.00    +0.241 C 
ATOM      3  N   CYS A   3      22.072  34.260  72.267  0.00  0.00    -0.296 N 
ATOM      4  H   CYS A   3      22.363  33.269  72.141  0.00  0.00    +0.150 HD
ATOM      5  O   TYR A   2      20.286  35.690  72.242  0.00  0.00    -0.273 OA
BRANCH   2   6
ATOM      6  CA  TYR A   2      19.924  33.331  71.857  0.00  0.00    +0.153 C 
BRANCH   6   9
ATOM      7  C   LEU A   1      19.305  32.486  74.061  0.00  0.00    +0.238 C 
ATOM      8  O   LEU A   1      20.430  31.991  74.277  0.00  0.00    -0.274 OA
ATOM      9  N   TYR A   2      18.988  33.113  72.931  0.00  0.00    -0.297 N 
ATOM     10  H   TYR A   2      18.016  33.464  72.817  0.00  0.00    +0.150 HD
BRANCH   7  11
ATOM     11  CA  LEU A   1      18.200  32.383  75.131  0.00  0.00    +0.145 C 
BRANCH  11  12
ATOM     12  N   LEU A   1      16.957  33.092  74.795  0.00  0.00    -0.238 NA
ATOM     13  H   LEU A   1      16.245  32.603  74.216  0.00  0.00    +0.142 HD
ENDBRANCH  11  12
BRANCH  11  14
ATOM     14  CB  LEU A   1      17.913  30.901  75.423  0.00  0.00    +0.026 C 
BRANCH  14  15
ATOM     15  CG  LEU A   1      17.127  30.673  76.733  0.00  0.00    +0.002 C 
ATOM     16  CD2 LEU A   1      17.873  31.248  77.923  0.00  0.00    +0.000 C 
ATOM     17  CD1 LEU A   1      16.805  29.211  76.986  0.00  0.00    +0.000 C 
ENDBRANCH  14  15
ENDBRANCH  11  14
ENDBRANCH   7  11
ENDBRANCH   6   9
BRANCH   6  18
ATOM     18  CB  TYR A   2      19.217  33.531  70.521  0.00  0.00    +0.055 C 
BRANCH  18  19
ATOM     19  CG  TYR A   2      20.151  33.818  69.367  0.00  0.00    -0.020 A 
ATOM     20  CD2 TYR A   2      20.270  35.111  68.841  0.00  0.00    -0.001 A 
ATOM     21  CE2 TYR A   2      21.114  35.383  67.766  0.00  0.00    +0.036 A 
ATOM     22  CZ  TYR A   2      21.859  34.358  67.217  0.00  0.00    +0.134 A 
ATOM     23  CE1 TYR A   2      21.773  33.084  67.722  0.00  0.00    +0.036 A 
ATOM     24  CD1 TYR A   2      20.913  32.814  68.799  0.00  0.00    -0.001 A 
BRANCH  22  25
ATOM     25  OH  TYR A   2      22.697  34.619  66.164  0.00  0.00    -0.506 OA
ATOM     26  HH  TYR A   2      23.153  33.784  65.892  0.00  0.00    +0.292 HD
ENDBRANCH  22  25
ENDBRANCH  18  19
ENDBRANCH   6  18
ENDBRANCH   2   6
ENDBRANCH   1   3
BRANCH   1  27
ATOM     27  C   CYS A   3      24.437  34.680  72.058  0.00  0.00    +0.242 C 
ATOM     28  N   LEU A   4      25.446  35.534  72.022  0.00  0.00    -0.297 N 
ATOM     29  H   LEU A   4      25.267  36.531  72.256  0.00  0.00    +0.150 HD
ATOM     30  O   CYS A   3      24.535  33.501  71.694  0.00  0.00    -0.273 OA
BRANCH  28  31
ATOM     31  CA  LEU A   4      26.796  35.130  71.667  0.00  0.00    +0.149 C 
BRANCH  31  32
ATOM     32  C   LEU A   4      27.701  35.261  72.902  0.00  0.00    +0.244 C 
ATOM     33  O   LEU A   4      27.448  36.082  73.767  0.00  0.00    -0.273 OA
ATOM     34  N   PRO A   5      28.729  34.415  73.017  0.00  0.00    -0.272 N 
ATOM     35  CD  PRO A   5      29.778  34.546  74.036  0.00  0.00    +0.094 C 
ATOM     36  CG  PRO A   5      30.918  33.773  73.462  0.00  0.00    +0.024 C 
ATOM     37  CB  PRO A   5      30.252  32.666  72.661  0.00  0.00    +0.031 C 
ATOM     38  CA  PRO A   5      28.916  33.243  72.175  0.00  0.00    +0.152 C 
BRANCH  38  39
ATOM     39  C   PRO A   5      27.737  32.272  72.409  0.00  0.00    +0.241 C 
ATOM     40  O   PRO A   5      27.054  32.339  73.442  0.00  0.00    -0.273 OA
ATOM     41  N   ILE A   6      27.483  31.411  71.449  0.00  0.00    -0.298 N 
ATOM     42  H   ILE A   6      28.150  31.327  70.655  0.00  0.00    +0.150 HD
BRANCH  41  43
ATOM     43  CA  ILE A   6      26.286  30.566  71.467  0.00  0.00    +0.137 C 
BRANCH  43  44
ATOM     44  CB  ILE A   6      26.027  29.908  70.069  0.00  0.00    +0.026 C 
ATOM     45  CG2 ILE A   6      27.083  28.810  69.707  0.00  0.00    +0.002 C 
BRANCH  44  46
ATOM     46  CG1 ILE A   6      24.595  29.341  69.973  0.00  0.00    +0.002 C 
ATOM     47  CD1 ILE A   6      23.865  29.844  68.815  0.00  0.00    +0.000 C 
ENDBRANCH  44  46
ENDBRANCH  43  44
BRANCH  43  48
ATOM     48  C   ILE A   6      26.323  29.538  72.598  0.00  0.00    +0.227 C 
ATOM     49  O   ILE A   6      27.350  29.000  72.903  0.00  0.00    -0.286 OA
ENDBRANCH  43  48
ENDBRANCH  41  43
ENDBRANCH  38  39
ENDBRANCH  31  32
BRANCH  31  50
ATOM     50  CB  LEU A   4      27.326  35.997  70.518  0.00  0.00    +0.029 C 
BRANCH  50  51
ATOM     51  CG  LEU A   4      26.524  36.055  69.211  0.00  0.00    +0.002 C 
ATOM     52  CD2 LEU A   4      26.093  34.666  68.687  0.00  0.00    +0.000 C 
ATOM     53  CD1 LEU A   4      27.370  36.824  68.137  0.00  0.00    +0.000 C 
ENDBRANCH  50  51
ENDBRANCH  31  50
ENDBRANCH  28  31
ENDBRANCH   1  27
BRANCH   1  54
ATOM     54  CB  CYS A   3      23.213  35.495  74.065  0.00  0.00    +0.098 C 
ATOM     55  SG  CYS A   3      23.740  34.006  74.961  0.00  0.00    -0.080 S 
ENDBRANCH   1  54
TORSDOF 21
REMARK  Name = ../refined-set-2016/2eg7/2eg7_pocket.pdb
REMARK  139 active torsions:
REMARK  status: ('A' for Active; 'I' for Inactive)
REMARK    1  A    between atoms: _1  and  _3
REMARK    2  A    between atoms: _14  and  _17
REMARK    3  A    between atoms: _17  and  _18
REMARK    4  A    between atoms: _23  and  _24
REMARK    5  A    between atoms: _32  and  _34
REMARK    6  A    between atoms: _34  and  _35
REMARK    7  A    between atoms: _34  and  _37
REMARK    8  A    between atoms: _37  and  _38
REMARK    9  A    between atoms: _41  and  _43
REMARK   10  A    between atoms: _43  and  _44
REMARK   11  A    between atoms: _43  and  _46
REMARK   12  A    between atoms: _46  and  _47
REMARK   13  A    between atoms: _47  and  _48
REMARK   14  A    between atoms: _48  and  _49
REMARK   15  A    between atoms: _58  and  _60
REMARK   16  A    between atoms: _60  and  _61
REMARK   17  A    between atoms: _60  and  _63
REMARK   18  A    between atoms: _63  and  _64
REMARK   19  A    between atoms: _64  and  _65
REMARK   20  A    between atoms: _67  and  _69
REMARK   21  A    between atoms: _69  and  _70
REMARK   22  A    between atoms: _69  and  _72
REMARK   23  A    between atoms: _72  and  _73
REMARK   24  A    between atoms: _78  and  _80
REMARK   25  A    between atoms: _80  and  _81
REMARK   26  A    between atoms: _80  and  _83
REMARK   27  A    between atoms: _83  and  _84
REMARK   28  A    between atoms: _87  and  _89
REMARK   29  A    between atoms: _89  and  _90
REMARK   30  A    between atoms: _89  and  _96
REMARK   31  A    between atoms: _90  and  _91
REMARK   32  A    between atoms: _91  and  _92
REMARK   33  A    between atoms: _92  and  _93
REMARK   34  A    between atoms: _93  and  _94
REMARK   35  A    between atoms: _94  and  _98
REMARK   36  A    between atoms: _98  and  _99
REMARK   37  A    between atoms: _98  and  _100
REMARK   38  A    between atoms: _99  and  ZN_344
REMARK   39  A    between atoms: _100  and  ZN_345
REMARK   40  A    between atoms: _101  and  _103
REMARK   41  A    between atoms: _103  and  _104
REMARK   42  A    between atoms: _103  and  _106
REMARK   43  A    between atoms: _106  and  _107
REMARK   44  A    between atoms: _112  and  _113
REMARK   45  A    between atoms: _116  and  _117
REMARK   46  A    between atoms: _122  and  _124
REMARK   47  A    between atoms: _124  and  _125
REMARK   48  A    between atoms: _124  and  _127
REMARK   49  A    between atoms: _127  and  _128
REMARK   50  A    between atoms: _129  and  ZN_344
REMARK   51  A    between atoms: _133  and  _135
REMARK   52  A    between atoms: _135  and  _136
REMARK   53  A    between atoms: _138  and  _140
REMARK   54  A    between atoms: _140  and  _141
REMARK   55  A    between atoms: _140  and  _143
REMARK   56  A    between atoms: _143  and  _144
REMARK   57  A    between atoms: _144  and  _145
REMARK   58  A    between atoms: _148  and  _150
REMARK   59  A    between atoms: _150  and  _151
REMARK   60  A    between atoms: _150  and  _153
REMARK   61  A    between atoms: _153  and  _154
REMARK   62  A    between atoms: _154  and  _155
REMARK   63  A    between atoms: _158  and  _160
REMARK   64  A    between atoms: _160  and  _161
REMARK   65  A    between atoms: _160  and  _163
REMARK   66  A    between atoms: _163  and  _164
REMARK   67  A    between atoms: _168  and  ZN_344
REMARK   68  A    between atoms: _169  and  _171
REMARK   69  A    between atoms: _171  and  _172
REMARK   70  A    between atoms: _171  and  _174
REMARK   71  A    between atoms: _174  and  _175
REMARK   72  A    between atoms: _178  and  _180
REMARK   73  A    between atoms: _180  and  _181
REMARK   74  A    between atoms: _180  and  _183
REMARK   75  A    between atoms: _183  and  _184
REMARK   76  A    between atoms: _184  and  _185
REMARK   77  A    between atoms: _190  and  _192
REMARK   78  A    between atoms: _192  and  _193
REMARK   79  A    between atoms: _192  and  _195
REMARK   80  A    between atoms: _195  and  _196
REMARK   81  A    between atoms: _201  and  _203
REMARK   82  A    between atoms: _203  and  _204
REMARK   83  A    between atoms: _203  and  _206
REMARK   84  A    between atoms: _206  and  _207
REMARK   85  A    between atoms: _210  and  _212
REMARK   86  A    between atoms: _212  and  _213
REMARK   87  A    between atoms: _212  and  _215
REMARK   88  A    between atoms: _215  and  _216
REMARK   89  A    between atoms: _221  and  _222
REMARK   90  A    between atoms: _224  and  _226
REMARK   91  A    between atoms: _226  and  _227
REMARK   92  A    between atoms: _226  and  _229
REMARK   93  A    between atoms: _231  and  _233
REMARK   94  A    between atoms: _233  and  _234
REMARK   95  A    between atoms: _233  and  _236
REMARK   96  A    between atoms: _236  and  _237
REMARK   97  A    between atoms: _241  and  _242
REMARK   98  A    between atoms: _247  and  _249
REMARK   99  A    between atoms: _249  and  _250
REMARK  100  A    between atoms: _249  and  _252
REMARK  101  A    between atoms: _252  and  _253
REMARK  102  A    between atoms: _256  and  _258
REMARK  103  A    between atoms: _258  and  _259
REMARK  104  A    between atoms: _258  and  _261
REMARK  105  A    between atoms: _261  and  _262
REMARK  106  A    between atoms: _265  and  _267
REMARK  107  A    between atoms: _267  and  _268
REMARK  108  A    between atoms: _267  and  _270
REMARK  109  A    between atoms: _270  and  _271
REMARK  110  A    between atoms: _271  and  _272
REMARK  111  A    between atoms: _272  and  ZN_345
REMARK  112  A    between atoms: _274  and  _276
REMARK  113  A    between atoms: _276  and  _277
REMARK  114  A    between atoms: _276  and  _279
REMARK  115  A    between atoms: _279  and  _280
REMARK  116  A    between atoms: _282  and  _284
REMARK  117  A    between atoms: _284  and  _285
REMARK  118  A    between atoms: _289  and  _290
REMARK  119  A    between atoms: _295  and  _297
REMARK  120  A    between atoms: _297  and  _298
REMARK  121  A    between atoms: _297  and  _300
REMARK  122  A    between atoms: _300  and  _301
REMARK  123  A    between atoms: _306  and  _308
REMARK  124  A    between atoms: _308  and  _309
REMARK  125  A    between atoms: _308  and  _311
REMARK  126  A    between atoms: _311  and  _312
REMARK  127  A    between atoms: _312  and  _313
REMARK  128  A    between atoms: _313  and  _314
REMARK  129  A    between atoms: _314  and  _315
REMARK  130  A    between atoms: _319  and  _321
REMARK  131  A    between atoms: _321  and  _322
REMARK  132  A    between atoms: _321  and  _324
REMARK  133  A    between atoms: _326  and  _328
REMARK  134  A    between atoms: _328  and  _329
REMARK  135  A    between atoms: _332  and  _334
REMARK  136  A    between atoms: _334  and  _335
REMARK  137  A    between atoms: _337  and  _339
REMARK  138  A    between atoms: _339  and  _340
REMARK  139  A    between atoms: _339  and  _342
REMARK                            x       y       z     vdW  Elec       q    Type
REMARK                         _______ _______ _______ _____ _____    ______ ____
ROOT
ATOM      1  CG  LYS A   1      15.323  40.182  71.853  0.00  0.00    -0.000 C 
ENDROOT
BRANCH   1   2
ATOM      2  CB  LYS A   1      14.305  39.361  71.049  0.00  0.00    +0.025 C 
BRANCH   2   3
ATOM      3  CA  LYS A   1      14.397  39.497  69.512  0.00  0.00    +0.133 C 
BRANCH   3   4
ATOM      4  N   LYS A   1      14.043  40.855  69.069  0.00  0.00    -0.239 NA
ATOM      5  H   LYS A   1      13.335  41.396  69.605  0.00  0.00    +0.142 HD
ENDBRANCH   3   4
BRANCH   3   6
ATOM      6  C   LYS A   1      13.505  38.473  68.851  0.00  0.00    +0.224 C 
ATOM      7  O   LYS A   1      13.955  37.428  68.433  0.00  0.00    -0.287 OA
ENDBRANCH   3   6
ENDBRANCH   2   3
ENDBRANCH   1   2
BRANCH   1   8
ATOM      8  CD  LYS A   1      16.775  39.610  71.827  0.00  0.00    -0.024 C 
BRANCH   8   9
ATOM      9  CE  LYS A   1      16.798  38.112  72.013  0.00  0.00    -0.086 C 
BRANCH   9  10
ATOM     10  NZ  LYS A   1      18.134  37.585  72.325  0.00  0.00    +0.380 N 
ATOM     11  HZ1 LYS A   1      18.478  38.016  73.207  0.00  0.00    -0.089 HD
ATOM     12  HZ2 LYS A   1      18.080  36.553  72.440  0.00  0.00    -0.089 HD
ATOM     13  HZ3 LYS A   1      18.786  37.815  71.548  0.00  0.00    -0.089 HD
ENDBRANCH   9  10
ENDBRANCH   8   9
ENDBRANCH   1   8
TORSDOF 7
REMARK  Name = ../refined-set-2016/2eg7/2eg7_pocket.pdb
REMARK  139 active torsions:
REMARK  status: ('A' for Active; 'I' for Inactive)
REMARK    1  A    between atoms: _1  and  _3
REMARK    2  A    between atoms: _14  and  _17
REMARK    3  A    between atoms: _17  and  _18
REMARK    4  A    between atoms: _23  and  _24
REMARK    5  A    between atoms: _32  and  _34
REMARK    6  A    between atoms: _34  and  _35
REMARK    7  A    between atoms: _34  and  _37
REMARK    8  A    between atoms: _37  and  _38
REMARK    9  A    between atoms: _41  and  _43
REMARK   10  A    between atoms: _43  and  _44
REMARK   11  A    between atoms: _43  and  _46
REMARK   12  A    between atoms: _46  and  _47
REMARK   13  A    between atoms: _47  and  _48
REMARK   14  A    between atoms: _48  and  _49
REMARK   15  A    between atoms: _58  and  _60
REMARK   16  A    between atoms: _60  and  _61
REMARK   17  A    between atoms: _60  and  _63
REMARK   18  A    between atoms: _63  and  _64
REMARK   19  A    between atoms: _64  and  _65
REMARK   20  A    between atoms: _67  and  _69
REMARK   21  A    between atoms: _69  and  _70
REMARK   22  A    between atoms: _69  and  _72
REMARK   23  A    between atoms: _72  and  _73
REMARK   24  A    between atoms: _78  and  _80
REMARK   25  A    between atoms: _80  and  _81
REMARK   26  A    between atoms: _80  and  _83
REMARK   27  A    between atoms: _83  and  _84
REMARK   28  A    between atoms: _87  and  _89
REMARK   29  A    between atoms: _89  and  _90
REMARK   30  A    between atoms: _89  and  _96
REMARK   31  A    between atoms: _90  and  _91
REMARK   32  A    between atoms: _91  and  _92
REMARK   33  A    between atoms: _92  and  _93
REMARK   34  A    between atoms: _93  and  _94
REMARK   35  A    between atoms: _94  and  _98
REMARK   36  A    between atoms: _98  and  _99
REMARK   37  A    between atoms: _98  and  _100
REMARK   38  A    between atoms: _99  and  ZN_344
REMARK   39  A    between atoms: _100  and  ZN_345
REMARK   40  A    between atoms: _101  and  _103
REMARK   41  A    between atoms: _103  and  _104
REMARK   42  A    between atoms: _103  and  _106
REMARK   43  A    between atoms: _106  and  _107
REMARK   44  A    between atoms: _112  and  _113
REMARK   45  A    between atoms: _116  and  _117
REMARK   46  A    between atoms: _122  and  _124
REMARK   47  A    between atoms: _124  and  _125
REMARK   48  A    between atoms: _124  and  _127
REMARK   49  A    between atoms: _127  and  _128
REMARK   50  A    between atoms: _129  and  ZN_344
REMARK   51  A    between atoms: _133  and  _135
REMARK   52  A    between atoms: _135  and  _136
REMARK   53  A    between atoms: _138  and  _140
REMARK   54  A    between atoms: _140  and  _141
REMARK   55  A    between atoms: _140  and  _143
REMARK   56  A    between atoms: _143  and  _144
REMARK   57  A    between atoms: _144  and  _145
REMARK   58  A    between atoms: _148  and  _150
REMARK   59  A    between atoms: _150  and  _151
REMARK   60  A    between atoms: _150  and  _153
REMARK   61  A    between atoms: _153  and  _154
REMARK   62  A    between atoms: _154  and  _155
REMARK   63  A    between atoms: _158  and  _160
REMARK   64  A    between atoms: _160  and  _161
REMARK   65  A    between atoms: _160  and  _163
REMARK   66  A    between atoms: _163  and  _164
REMARK   67  A    between atoms: _168  and  ZN_344
REMARK   68  A    between atoms: _169  and  _171
REMARK   69  A    between atoms: _171  and  _172
REMARK   70  A    between atoms: _171  and  _174
REMARK   71  A    between atoms: _174  and  _175
REMARK   72  A    between atoms: _178  and  _180
REMARK   73  A    between atoms: _180  and  _181
REMARK   74  A    between atoms: _180  and  _183
REMARK   75  A    between atoms: _183  and  _184
REMARK   76  A    between atoms: _184  and  _185
REMARK   77  A    between atoms: _190  and  _192
REMARK   78  A    between atoms: _192  and  _193
REMARK   79  A    between atoms: _192  and  _195
REMARK   80  A    between atoms: _195  and  _196
REMARK   81  A    between atoms: _201  and  _203
REMARK   82  A    between atoms: _203  and  _204
REMARK   83  A    between atoms: _203  and  _206
REMARK   84  A    between atoms: _206  and  _207
REMARK   85  A    between atoms: _210  and  _212
REMARK   86  A    between atoms: _212  and  _213
REMARK   87  A    between atoms: _212  and  _215
REMARK   88  A    between atoms: _215  and  _216
REMARK   89  A    between atoms: _221  and  _222
REMARK   90  A    between atoms: _224  and  _226
REMARK   91  A    between atoms: _226  and  _227
REMARK   92  A    between atoms: _226  and  _229
REMARK   93  A    between atoms: _231  and  _233
REMARK   94  A    between atoms: _233  and  _234
REMARK   95  A    between atoms: _233  and  _236
REMARK   96  A    between atoms: _236  and  _237
REMARK   97  A    between atoms: _241  and  _242
REMARK   98  A    between atoms: _247  and  _249
REMARK   99  A    between atoms: _249  and  _250
REMARK  100  A    between atoms: _249  and  _252
REMARK  101  A    between atoms: _252  and  _253
REMARK  102  A    between atoms: _256  and  _258
REMARK  103  A    between atoms: _258  and  _259
REMARK  104  A    between atoms: _258  and  _261
REMARK  105  A    between atoms: _261  and  _262
REMARK  106  A    between atoms: _265  and  _267
REMARK  107  A    between atoms: _267  and  _268
REMARK  108  A    between atoms: _267  and  _270
REMARK  109  A    between atoms: _270  and  _271
REMARK  110  A    between atoms: _271  and  _272
REMARK  111  A    between atoms: _272  and  ZN_345
REMARK  112  A    between atoms: _274  and  _276
REMARK  113  A    between atoms: _276  and  _277
REMARK  114  A    between atoms: _276  and  _279
REMARK  115  A    between atoms: _279  and  _280
REMARK  116  A    between atoms: _282  and  _284
REMARK  117  A    between atoms: _284  and  _285
REMARK  118  A    between atoms: _289  and  _290
REMARK  119  A    between atoms: _295  and  _297
REMARK  120  A    between atoms: _297  and  _298
REMARK  121  A    between atoms: _297  and  _300
REMARK  122  A    between atoms: _300  and  _301
REMARK  123  A    between atoms: _306  and  _308
REMARK  124  A    between atoms: _308  and  _309
REMARK  125  A    between atoms: _308  and  _311
REMARK  126  A    between atoms: _311  and  _312
REMARK  127  A    between atoms: _312  and  _313
REMARK  128  A    between atoms: _313  and  _314
REMARK  129  A    between atoms: _314  and  _315
REMARK  130  A    between atoms: _319  and  _321
REMARK  131  A    between atoms: _321  and  _322
REMARK  132  A    between atoms: _321  and  _324
REMARK  133  A    between atoms: _326  and  _328
REMARK  134  A    between atoms: _328  and  _329
REMARK  135  A    between atoms: _332  and  _334
REMARK  136  A    between atoms: _334  and  _335
REMARK  137  A    between atoms: _337  and  _339
REMARK  138  A    between atoms: _339  and  _340
REMARK  139  A    between atoms: _339  and  _342
REMARK                            x       y       z     vdW  Elec       q    Type
REMARK                         _______ _______ _______ _____ _____    ______ ____
ROOT
ATOM      1  C   ALA A   2      21.816  38.968  71.238  0.00  0.00    +0.241 C 
ATOM      2  N   GLY A   3      21.519  38.418  72.415  0.00  0.00    -0.295 N 
ATOM      3  H   GLY A   3      21.152  37.445  72.427  0.00  0.00    +0.150 HD
ATOM      4  O   ALA A   2      22.188  40.119  71.108  0.00  0.00    -0.273 OA
ENDROOT
BRANCH   1   5
ATOM      5  CA  ALA A   2      21.716  38.068  70.028  0.00  0.00    +0.149 C 
ATOM      6  CB  ALA A   2      23.139  37.637  69.596  0.00  0.00    +0.031 C 
BRANCH   5   9
ATOM      7  C   CYS A   1      19.736  38.975  68.873  0.00  0.00    +0.239 C 
ATOM      8  O   CYS A   1      18.926  38.481  69.658  0.00  0.00    -0.274 OA
ATOM      9  N   ALA A   2      21.045  38.768  68.924  0.00  0.00    -0.297 N 
ATOM     10  H   ALA A   2      21.629  39.121  68.139  0.00  0.00    +0.150 HD
BRANCH   7  11
ATOM     11  CA  CYS A   1      19.270  39.841  67.721  0.00  0.00    +0.156 C 
BRANCH  11  12
ATOM     12  N   CYS A   1      18.013  39.336  67.168  0.00  0.00    -0.237 NA
ATOM     13  H   CYS A   1      17.155  39.917  67.255  0.00  0.00    +0.142 HD
ENDBRANCH  11  12
BRANCH  11  14
ATOM     14  CB  CYS A   1      19.141  41.281  68.207  0.00  0.00    +0.095 C 
ATOM     15  SG  CYS A   1      18.713  42.385  66.908  0.00  0.00    -0.080 S 
ENDBRANCH  11  14
ENDBRANCH   7  11
ENDBRANCH   5   9
ENDBRANCH   1   5
BRANCH   2  16
ATOM     16  CA  GLY A   3      21.683  39.114  73.693  0.00  0.00    +0.176 C 
BRANCH  16  17
ATOM     17  C   GLY A   3      20.541  38.840  74.688  0.00  0.00    +0.243 C 
ATOM     18  N   CYS A   4      20.919  38.450  75.902  0.00  0.00    -0.297 N 
ATOM     19  H   CYS A   4      21.928  38.250  76.055  0.00  0.00    +0.150 HD
ATOM     20  O   GLY A   3      19.354  38.973  74.349  0.00  0.00    -0.273 OA
BRANCH  18  21
ATOM     21  CA  CYS A   4      20.011  38.284  77.037  0.00  0.00    +0.149 C 
BRANCH  21  22
ATOM     22  C   CYS A   4      19.978  39.509  77.979  0.00  0.00    +0.228 C 
ATOM     23  O   CYS A   4      21.021  40.003  78.444  0.00  0.00    -0.286 OA
ENDBRANCH  21  22
BRANCH  21  24
ATOM     24  CB  CYS A   4      20.387  37.036  77.862  0.00  0.00    +0.096 C 
ATOM     25  SG  CYS A   4      20.631  35.509  76.898  0.00  0.00    -0.080 S 
ENDBRANCH  21  24
ENDBRANCH  18  21
ENDBRANCH  16  17
ENDBRANCH   2  16
TORSDOF 10
REMARK  Name = ../refined-set-2016/2eg7/2eg7_pocket.pdb
REMARK  139 active torsions:
REMARK  status: ('A' for Active; 'I' for Inactive)
REMARK    1  A    between atoms: _1  and  _3
REMARK    2  A    between atoms: _14  and  _17
REMARK    3  A    between atoms: _17  and  _18
REMARK    4  A    between atoms: _23  and  _24
REMARK    5  A    between atoms: _32  and  _34
REMARK    6  A    between atoms: _34  and  _35
REMARK    7  A    between atoms: _34  and  _37
REMARK    8  A    between atoms: _37  and  _38
REMARK    9  A    between atoms: _41  and  _43
REMARK   10  A    between atoms: _43  and  _44
REMARK   11  A    between atoms: _43  and  _46
REMARK   12  A    between atoms: _46  and  _47
REMARK   13  A    between atoms: _47  and  _48
REMARK   14  A    between atoms: _48  and  _49
REMARK   15  A    between atoms: _58  and  _60
REMARK   16  A    between atoms: _60  and  _61
REMARK   17  A    between atoms: _60  and  _63
REMARK   18  A    between atoms: _63  and  _64
REMARK   19  A    between atoms: _64  and  _65
REMARK   20  A    between atoms: _67  and  _69
REMARK   21  A    between atoms: _69  and  _70
REMARK   22  A    between atoms: _69  and  _72
REMARK   23  A    between atoms: _72  and  _73
REMARK   24  A    between atoms: _78  and  _80
REMARK   25  A    between atoms: _80  and  _81
REMARK   26  A    between atoms: _80  and  _83
REMARK   27  A    between atoms: _83  and  _84
REMARK   28  A    between atoms: _87  and  _89
REMARK   29  A    between atoms: _89  and  _90
REMARK   30  A    between atoms: _89  and  _96
REMARK   31  A    between atoms: _90  and  _91
REMARK   32  A    between atoms: _91  and  _92
REMARK   33  A    between atoms: _92  and  _93
REMARK   34  A    between atoms: _93  and  _94
REMARK   35  A    between atoms: _94  and  _98
REMARK   36  A    between atoms: _98  and  _99
REMARK   37  A    between atoms: _98  and  _100
REMARK   38  A    between atoms: _99  and  ZN_344
REMARK   39  A    between atoms: _100  and  ZN_345
REMARK   40  A    between atoms: _101  and  _103
REMARK   41  A    between atoms: _103  and  _104
REMARK   42  A    between atoms: _103  and  _106
REMARK   43  A    between atoms: _106  and  _107
REMARK   44  A    between atoms: _112  and  _113
REMARK   45  A    between atoms: _116  and  _117
REMARK   46  A    between atoms: _122  and  _124
REMARK   47  A    between atoms: _124  and  _125
REMARK   48  A    between atoms: _124  and  _127
REMARK   49  A    between atoms: _127  and  _128
REMARK   50  A    between atoms: _129  and  ZN_344
REMARK   51  A    between atoms: _133  and  _135
REMARK   52  A    between atoms: _135  and  _136
REMARK   53  A    between atoms: _138  and  _140
REMARK   54  A    between atoms: _140  and  _141
REMARK   55  A    between atoms: _140  and  _143
REMARK   56  A    between atoms: _143  and  _144
REMARK   57  A    between atoms: _144  and  _145
REMARK   58  A    between atoms: _148  and  _150
REMARK   59  A    between atoms: _150  and  _151
REMARK   60  A    between atoms: _150  and  _153
REMARK   61  A    between atoms: _153  and  _154
REMARK   62  A    between atoms: _154  and  _155
REMARK   63  A    between atoms: _158  and  _160
REMARK   64  A    between atoms: _160  and  _161
REMARK   65  A    between atoms: _160  and  _163
REMARK   66  A    between atoms: _163  and  _164
REMARK   67  A    between atoms: _168  and  ZN_344
REMARK   68  A    between atoms: _169  and  _171
REMARK   69  A    between atoms: _171  and  _172
REMARK   70  A    between atoms: _171  and  _174
REMARK   71  A    between atoms: _174  and  _175
REMARK   72  A    between atoms: _178  and  _180
REMARK   73  A    between atoms: _180  and  _181
REMARK   74  A    between atoms: _180  and  _183
REMARK   75  A    between atoms: _183  and  _184
REMARK   76  A    between atoms: _184  and  _185
REMARK   77  A    between atoms: _190  and  _192
REMARK   78  A    between atoms: _192  and  _193
REMARK   79  A    between atoms: _192  and  _195
REMARK   80  A    between atoms: _195  and  _196
REMARK   81  A    between atoms: _201  and  _203
REMARK   82  A    between atoms: _203  and  _204
REMARK   83  A    between atoms: _203  and  _206
REMARK   84  A    between atoms: _206  and  _207
REMARK   85  A    between atoms: _210  and  _212
REMARK   86  A    between atoms: _212  and  _213
REMARK   87  A    between atoms: _212  and  _215
REMARK   88  A    between atoms: _215  and  _216
REMARK   89  A    between atoms: _221  and  _222
REMARK   90  A    between atoms: _224  and  _226
REMARK   91  A    between atoms: _226  and  _227
REMARK   92  A    between atoms: _226  and  _229
REMARK   93  A    between atoms: _231  and  _233
REMARK   94  A    between atoms: _233  and  _234
REMARK   95  A    between atoms: _233  and  _236
REMARK   96  A    between atoms: _236  and  _237
REMARK   97  A    between atoms: _241  and  _242
REMARK   98  A    between atoms: _247  and  _249
REMARK   99  A    between atoms: _249  and  _250
REMARK  100  A    between atoms: _249  and  _252
REMARK  101  A    between atoms: _252  and  _253
REMARK  102  A    between atoms: _256  and  _258
REMARK  103  A    between atoms: _258  and  _259
REMARK  104  A    between atoms: _258  and  _261
REMARK  105  A    between atoms: _261  and  _262
REMARK  106  A    between atoms: _265  and  _267
REMARK  107  A    between atoms: _267  and  _268
REMARK  108  A    between atoms: _267  and  _270
REMARK  109  A    between atoms: _270  and  _271
REMARK  110  A    between atoms: _271  and  _272
REMARK  111  A    between atoms: _272  and  ZN_345
REMARK  112  A    between atoms: _274  and  _276
REMARK  113  A    between atoms: _276  and  _277
REMARK  114  A    between atoms: _276  and  _279
REMARK  115  A    between atoms: _279  and  _280
REMARK  116  A    between atoms: _282  and  _284
REMARK  117  A    between atoms: _284  and  _285
REMARK  118  A    between atoms: _289  and  _290
REMARK  119  A    between atoms: _295  and  _297
REMARK  120  A    between atoms: _297  and  _298
REMARK  121  A    between atoms: _297  and  _300
REMARK  122  A    between atoms: _300  and  _301
REMARK  123  A    between atoms: _306  and  _308
REMARK  124  A    between atoms: _308  and  _309
REMARK  125  A    between atoms: _308  and  _311
REMARK  126  A    between atoms: _311  and  _312
REMARK  127  A    between atoms: _312  and  _313
REMARK  128  A    between atoms: _313  and  _314
REMARK  129  A    between atoms: _314  and  _315
REMARK  130  A    between atoms: _319  and  _321
REMARK  131  A    between atoms: _321  and  _322
REMARK  132  A    between atoms: _321  and  _324
REMARK  133  A    between atoms: _326  and  _328
REMARK  134  A    between atoms: _328  and  _329
REMARK  135  A    between atoms: _332  and  _334
REMARK  136  A    between atoms: _334  and  _335
REMARK  137  A    between atoms: _337  and  _339
REMARK  138  A    between atoms: _339  and  _340
REMARK  139  A    between atoms: _339  and  _342
REMARK                            x       y       z     vdW  Elec       q    Type
REMARK                         _______ _______ _______ _____ _____    ______ ____
ROOT
ATOM      1  O   HOH     1      30.633  37.841  80.813  0.00  0.00    +0.000 OA
ENDROOT
TORSDOF 0
REMARK  Name = ../refined-set-2016/2eg7/2eg7_pocket.pdb
REMARK  139 active torsions:
REMARK  status: ('A' for Active; 'I' for Inactive)
REMARK    1  A    between atoms: _1  and  _3
REMARK    2  A    between atoms: _14  and  _17
REMARK    3  A    between atoms: _17  and  _18
REMARK    4  A    between atoms: _23  and  _24
REMARK    5  A    between atoms: _32  and  _34
REMARK    6  A    between atoms: _34  and  _35
REMARK    7  A    between atoms: _34  and  _37
REMARK    8  A    between atoms: _37  and  _38
REMARK    9  A    between atoms: _41  and  _43
REMARK   10  A    between atoms: _43  and  _44
REMARK   11  A    between atoms: _43  and  _46
REMARK   12  A    between atoms: _46  and  _47
REMARK   13  A    between atoms: _47  and  _48
REMARK   14  A    between atoms: _48  and  _49
REMARK   15  A    between atoms: _58  and  _60
REMARK   16  A    between atoms: _60  and  _61
REMARK   17  A    between atoms: _60  and  _63
REMARK   18  A    between atoms: _63  and  _64
REMARK   19  A    between atoms: _64  and  _65
REMARK   20  A    between atoms: _67  and  _69
REMARK   21  A    between atoms: _69  and  _70
REMARK   22  A    between atoms: _69  and  _72
REMARK   23  A    between atoms: _72  and  _73
REMARK   24  A    between atoms: _78  and  _80
REMARK   25  A    between atoms: _80  and  _81
REMARK   26  A    between atoms: _80  and  _83
REMARK   27  A    between atoms: _83  and  _84
REMARK   28  A    between atoms: _87  and  _89
REMARK   29  A    between atoms: _89  and  _90
REMARK   30  A    between atoms: _89  and  _96
REMARK   31  A    between atoms: _90  and  _91
REMARK   32  A    between atoms: _91  and  _92
REMARK   33  A    between atoms: _92  and  _93
REMARK   34  A    between atoms: _93  and  _94
REMARK   35  A    between atoms: _94  and  _98
REMARK   36  A    between atoms: _98  and  _99
REMARK   37  A    between atoms: _98  and  _100
REMARK   38  A    between atoms: _99  and  ZN_344
REMARK   39  A    between atoms: _100  and  ZN_345
REMARK   40  A    between atoms: _101  and  _103
REMARK   41  A    between atoms: _103  and  _104
REMARK   42  A    between atoms: _103  and  _106
REMARK   43  A    between atoms: _106  and  _107
REMARK   44  A    between atoms: _112  and  _113
REMARK   45  A    between atoms: _116  and  _117
REMARK   46  A    between atoms: _122  and  _124
REMARK   47  A    between atoms: _124  and  _125
REMARK   48  A    between atoms: _124  and  _127
REMARK   49  A    between atoms: _127  and  _128
REMARK   50  A    between atoms: _129  and  ZN_344
REMARK   51  A    between atoms: _133  and  _135
REMARK   52  A    between atoms: _135  and  _136
REMARK   53  A    between atoms: _138  and  _140
REMARK   54  A    between atoms: _140  and  _141
REMARK   55  A    between atoms: _140  and  _143
REMARK   56  A    between atoms: _143  and  _144
REMARK   57  A    between atoms: _144  and  _145
REMARK   58  A    between atoms: _148  and  _150
REMARK   59  A    between atoms: _150  and  _151
REMARK   60  A    between atoms: _150  and  _153
REMARK   61  A    between atoms: _153  and  _154
REMARK   62  A    between atoms: _154  and  _155
REMARK   63  A    between atoms: _158  and  _160
REMARK   64  A    between atoms: _160  and  _161
REMARK   65  A    between atoms: _160  and  _163
REMARK   66  A    between atoms: _163  and  _164
REMARK   67  A    between atoms: _168  and  ZN_344
REMARK   68  A    between atoms: _169  and  _171
REMARK   69  A    between atoms: _171  and  _172
REMARK   70  A    between atoms: _171  and  _174
REMARK   71  A    between atoms: _174  and  _175
REMARK   72  A    between atoms: _178  and  _180
REMARK   73  A    between atoms: _180  and  _181
REMARK   74  A    between atoms: _180  and  _183
REMARK   75  A    between atoms: _183  and  _184
REMARK   76  A    between atoms: _184  and  _185
REMARK   77  A    between atoms: _190  and  _192
REMARK   78  A    between atoms: _192  and  _193
REMARK   79  A    between atoms: _192  and  _195
REMARK   80  A    between atoms: _195  and  _196
REMARK   81  A    between atoms: _201  and  _203
REMARK   82  A    between atoms: _203  and  _204
REMARK   83  A    between atoms: _203  and  _206
REMARK   84  A    between atoms: _206  and  _207
REMARK   85  A    between atoms: _210  and  _212
REMARK   86  A    between atoms: _212  and  _213
REMARK   87  A    between atoms: _212  and  _215
REMARK   88  A    between atoms: _215  and  _216
REMARK   89  A    between atoms: _221  and  _222
REMARK   90  A    between atoms: _224  and  _226
REMARK   91  A    between atoms: _226  and  _227
REMARK   92  A    between atoms: _226  and  _229
REMARK   93  A    between atoms: _231  and  _233
REMARK   94  A    between atoms: _233  and  _234
REMARK   95  A    between atoms: _233  and  _236
REMARK   96  A    between atoms: _236  and  _237
REMARK   97  A    between atoms: _241  and  _242
REMARK   98  A    between atoms: _247  and  _249
REMARK   99  A    between atoms: _249  and  _250
REMARK  100  A    between atoms: _249  and  _252
REMARK  101  A    between atoms: _252  and  _253
REMARK  102  A    between atoms: _256  and  _258
REMARK  103  A    between atoms: _258  and  _259
REMARK  104  A    between atoms: _258  and  _261
REMARK  105  A    between atoms: _261  and  _262
REMARK  106  A    between atoms: _265  and  _267
REMARK  107  A    between atoms: _267  and  _268
REMARK  108  A    between atoms: _267  and  _270
REMARK  109  A    between atoms: _270  and  _271
REMARK  110  A    between atoms: _271  and  _272
REMARK  111  A    between atoms: _272  and  ZN_345
REMARK  112  A    between atoms: _274  and  _276
REMARK  113  A    between atoms: _276  and  _277
REMARK  114  A    between atoms: _276  and  _279
REMARK  115  A    between atoms: _279  and  _280
REMARK  116  A    between atoms: _282  and  _284
REMARK  117  A    between atoms: _284  and  _285
REMARK  118  A    between atoms: _289  and  _290
REMARK  119  A    between atoms: _295  and  _297
REMARK  120  A    between atoms: _297  and  _298
REMARK  121  A    between atoms: _297  and  _300
REMARK  122  A    between atoms: _300  and  _301
REMARK  123  A    between atoms: _306  and  _308
REMARK  124  A    between atoms: _308  and  _309
REMARK  125  A    between atoms: _308  and  _311
REMARK  126  A    between atoms: _311  and  _312
REMARK  127  A    between atoms: _312  and  _313
REMARK  128  A    between atoms: _313  and  _314
REMARK  129  A    between atoms: _314  and  _315
REMARK  130  A    between atoms: _319  and  _321
REMARK  131  A    between atoms: _321  and  _322
REMARK  132  A    between atoms: _321  and  _324
REMARK  133  A    between atoms: _326  and  _328
REMARK  134  A    between atoms: _328  and  _329
REMARK  135  A    between atoms: _332  and  _334
REMARK  136  A    between atoms: _334  and  _335
REMARK  137  A    between atoms: _337  and  _339
REMARK  138  A    between atoms: _339  and  _340
REMARK  139  A    between atoms: _339  and  _342
REMARK                            x       y       z     vdW  Elec       q    Type
REMARK                         _______ _______ _______ _____ _____    ______ ____
ROOT
ATOM      1  O   HOH     1      25.420  48.798  72.371  0.00  0.00    +0.000 OA
ENDROOT
TORSDOF 0
REMARK  Name = ../refined-set-2016/2eg7/2eg7_pocket.pdb
REMARK  139 active torsions:
REMARK  status: ('A' for Active; 'I' for Inactive)
REMARK    1  A    between atoms: _1  and  _3
REMARK    2  A    between atoms: _14  and  _17
REMARK    3  A    between atoms: _17  and  _18
REMARK    4  A    between atoms: _23  and  _24
REMARK    5  A    between atoms: _32  and  _34
REMARK    6  A    between atoms: _34  and  _35
REMARK    7  A    between atoms: _34  and  _37
REMARK    8  A    between atoms: _37  and  _38
REMARK    9  A    between atoms: _41  and  _43
REMARK   10  A    between atoms: _43  and  _44
REMARK   11  A    between atoms: _43  and  _46
REMARK   12  A    between atoms: _46  and  _47
REMARK   13  A    between atoms: _47  and  _48
REMARK   14  A    between atoms: _48  and  _49
REMARK   15  A    between atoms: _58  and  _60
REMARK   16  A    between atoms: _60  and  _61
REMARK   17  A    between atoms: _60  and  _63
REMARK   18  A    between atoms: _63  and  _64
REMARK   19  A    between atoms: _64  and  _65
REMARK   20  A    between atoms: _67  and  _69
REMARK   21  A    between atoms: _69  and  _70
REMARK   22  A    between atoms: _69  and  _72
REMARK   23  A    between atoms: _72  and  _73
REMARK   24  A    between atoms: _78  and  _80
REMARK   25  A    between atoms: _80  and  _81
REMARK   26  A    between atoms: _80  and  _83
REMARK   27  A    between atoms: _83  and  _84
REMARK   28  A    between atoms: _87  and  _89
REMARK   29  A    between atoms: _89  and  _90
REMARK   30  A    between atoms: _89  and  _96
REMARK   31  A    between atoms: _90  and  _91
REMARK   32  A    between atoms: _91  and  _92
REMARK   33  A    between atoms: _92  and  _93
REMARK   34  A    between atoms: _93  and  _94
REMARK   35  A    between atoms: _94  and  _98
REMARK   36  A    between atoms: _98  and  _99
REMARK   37  A    between atoms: _98  and  _100
REMARK   38  A    between atoms: _99  and  ZN_344
REMARK   39  A    between atoms: _100  and  ZN_345
REMARK   40  A    between atoms: _101  and  _103
REMARK   41  A    between atoms: _103  and  _104
REMARK   42  A    between atoms: _103  and  _106
REMARK   43  A    between atoms: _106  and  _107
REMARK   44  A    between atoms: _112  and  _113
REMARK   45  A    between atoms: _116  and  _117
REMARK   46  A    between atoms: _122  and  _124
REMARK   47  A    between atoms: _124  and  _125
REMARK   48  A    between atoms: _124  and  _127
REMARK   49  A    between atoms: _127  and  _128
REMARK   50  A    between atoms: _129  and  ZN_344
REMARK   51  A    between atoms: _133  and  _135
REMARK   52  A    between atoms: _135  and  _136
REMARK   53  A    between atoms: _138  and  _140
REMARK   54  A    between atoms: _140  and  _141
REMARK   55  A    between atoms: _140  and  _143
REMARK   56  A    between atoms: _143  and  _144
REMARK   57  A    between atoms: _144  and  _145
REMARK   58  A    between atoms: _148  and  _150
REMARK   59  A    between atoms: _150  and  _151
REMARK   60  A    between atoms: _150  and  _153
REMARK   61  A    between atoms: _153  and  _154
REMARK   62  A    between atoms: _154  and  _155
REMARK   63  A    between atoms: _158  and  _160
REMARK   64  A    between atoms: _160  and  _161
REMARK   65  A    between atoms: _160  and  _163
REMARK   66  A    between atoms: _163  and  _164
REMARK   67  A    between atoms: _168  and  ZN_344
REMARK   68  A    between atoms: _169  and  _171
REMARK   69  A    between atoms: _171  and  _172
REMARK   70  A    between atoms: _171  and  _174
REMARK   71  A    between atoms: _174  and  _175
REMARK   72  A    between atoms: _178  and  _180
REMARK   73  A    between atoms: _180  and  _181
REMARK   74  A    between atoms: _180  and  _183
REMARK   75  A    between atoms: _183  and  _184
REMARK   76  A    between atoms: _184  and  _185
REMARK   77  A    between atoms: _190  and  _192
REMARK   78  A    between atoms: _192  and  _193
REMARK   79  A    between atoms: _192  and  _195
REMARK   80  A    between atoms: _195  and  _196
REMARK   81  A    between atoms: _201  and  _203
REMARK   82  A    between atoms: _203  and  _204
REMARK   83  A    between atoms: _203  and  _206
REMARK   84  A    between atoms: _206  and  _207
REMARK   85  A    between atoms: _210  and  _212
REMARK   86  A    between atoms: _212  and  _213
REMARK   87  A    between atoms: _212  and  _215
REMARK   88  A    between atoms: _215  and  _216
REMARK   89  A    between atoms: _221  and  _222
REMARK   90  A    between atoms: _224  and  _226
REMARK   91  A    between atoms: _226  and  _227
REMARK   92  A    between atoms: _226  and  _229
REMARK   93  A    between atoms: _231  and  _233
REMARK   94  A    between atoms: _233  and  _234
REMARK   95  A    between atoms: _233  and  _236
REMARK   96  A    between atoms: _236  and  _237
REMARK   97  A    between atoms: _241  and  _242
REMARK   98  A    between atoms: _247  and  _249
REMARK   99  A    between atoms: _249  and  _250
REMARK  100  A    between atoms: _249  and  _252
REMARK  101  A    between atoms: _252  and  _253
REMARK  102  A    between atoms: _256  and  _258
REMARK  103  A    between atoms: _258  and  _259
REMARK  104  A    between atoms: _258  and  _261
REMARK  105  A    between atoms: _261  and  _262
REMARK  106  A    between atoms: _265  and  _267
REMARK  107  A    between atoms: _267  and  _268
REMARK  108  A    between atoms: _267  and  _270
REMARK  109  A    between atoms: _270  and  _271
REMARK  110  A    between atoms: _271  and  _272
REMARK  111  A    between atoms: _272  and  ZN_345
REMARK  112  A    between atoms: _274  and  _276
REMARK  113  A    between atoms: _276  and  _277
REMARK  114  A    between atoms: _276  and  _279
REMARK  115  A    between atoms: _279  and  _280
REMARK  116  A    between atoms: _282  and  _284
REMARK  117  A    between atoms: _284  and  _285
REMARK  118  A    between atoms: _289  and  _290
REMARK  119  A    between atoms: _295  and  _297
REMARK  120  A    between atoms: _297  and  _298
REMARK  121  A    between atoms: _297  and  _300
REMARK  122  A    between atoms: _300  and  _301
REMARK  123  A    between atoms: _306  and  _308
REMARK  124  A    between atoms: _308  and  _309
REMARK  125  A    between atoms: _308  and  _311
REMARK  126  A    between atoms: _311  and  _312
REMARK  127  A    between atoms: _312  and  _313
REMARK  128  A    between atoms: _313  and  _314
REMARK  129  A    between atoms: _314  and  _315
REMARK  130  A    between atoms: _319  and  _321
REMARK  131  A    between atoms: _321  and  _322
REMARK  132  A    between atoms: _321  and  _324
REMARK  133  A    between atoms: _326  and  _328
REMARK  134  A    between atoms: _328  and  _329
REMARK  135  A    between atoms: _332  and  _334
REMARK  136  A    between atoms: _334  and  _335
REMARK  137  A    between atoms: _337  and  _339
REMARK  138  A    between atoms: _339  and  _340
REMARK  139  A    between atoms: _339  and  _342
REMARK                            x       y       z     vdW  Elec       q    Type
REMARK                         _______ _______ _______ _____ _____    ______ ____
ROOT
ATOM      1  O   HOH     1      27.476  49.716  76.944  0.00  0.00    +0.000 OA
ENDROOT
TORSDOF 0
REMARK  Name = ../refined-set-2016/2eg7/2eg7_pocket.pdb
REMARK  139 active torsions:
REMARK  status: ('A' for Active; 'I' for Inactive)
REMARK    1  A    between atoms: _1  and  _3
REMARK    2  A    between atoms: _14  and  _17
REMARK    3  A    between atoms: _17  and  _18
REMARK    4  A    between atoms: _23  and  _24
REMARK    5  A    between atoms: _32  and  _34
REMARK    6  A    between atoms: _34  and  _35
REMARK    7  A    between atoms: _34  and  _37
REMARK    8  A    between atoms: _37  and  _38
REMARK    9  A    between atoms: _41  and  _43
REMARK   10  A    between atoms: _43  and  _44
REMARK   11  A    between atoms: _43  and  _46
REMARK   12  A    between atoms: _46  and  _47
REMARK   13  A    between atoms: _47  and  _48
REMARK   14  A    between atoms: _48  and  _49
REMARK   15  A    between atoms: _58  and  _60
REMARK   16  A    between atoms: _60  and  _61
REMARK   17  A    between atoms: _60  and  _63
REMARK   18  A    between atoms: _63  and  _64
REMARK   19  A    between atoms: _64  and  _65
REMARK   20  A    between atoms: _67  and  _69
REMARK   21  A    between atoms: _69  and  _70
REMARK   22  A    between atoms: _69  and  _72
REMARK   23  A    between atoms: _72  and  _73
REMARK   24  A    between atoms: _78  and  _80
REMARK   25  A    between atoms: _80  and  _81
REMARK   26  A    between atoms: _80  and  _83
REMARK   27  A    between atoms: _83  and  _84
REMARK   28  A    between atoms: _87  and  _89
REMARK   29  A    between atoms: _89  and  _90
REMARK   30  A    between atoms: _89  and  _96
REMARK   31  A    between atoms: _90  and  _91
REMARK   32  A    between atoms: _91  and  _92
REMARK   33  A    between atoms: _92  and  _93
REMARK   34  A    between atoms: _93  and  _94
REMARK   35  A    between atoms: _94  and  _98
REMARK   36  A    between atoms: _98  and  _99
REMARK   37  A    between atoms: _98  and  _100
REMARK   38  A    between atoms: _99  and  ZN_344
REMARK   39  A    between atoms: _100  and  ZN_345
REMARK   40  A    between atoms: _101  and  _103
REMARK   41  A    between atoms: _103  and  _104
REMARK   42  A    between atoms: _103  and  _106
REMARK   43  A    between atoms: _106  and  _107
REMARK   44  A    between atoms: _112  and  _113
REMARK   45  A    between atoms: _116  and  _117
REMARK   46  A    between atoms: _122  and  _124
REMARK   47  A    between atoms: _124  and  _125
REMARK   48  A    between atoms: _124  and  _127
REMARK   49  A    between atoms: _127  and  _128
REMARK   50  A    between atoms: _129  and  ZN_344
REMARK   51  A    between atoms: _133  and  _135
REMARK   52  A    between atoms: _135  and  _136
REMARK   53  A    between atoms: _138  and  _140
REMARK   54  A    between atoms: _140  and  _141
REMARK   55  A    between atoms: _140  and  _143
REMARK   56  A    between atoms: _143  and  _144
REMARK   57  A    between atoms: _144  and  _145
REMARK   58  A    between atoms: _148  and  _150
REMARK   59  A    between atoms: _150  and  _151
REMARK   60  A    between atoms: _150  and  _153
REMARK   61  A    between atoms: _153  and  _154
REMARK   62  A    between atoms: _154  and  _155
REMARK   63  A    between atoms: _158  and  _160
REMARK   64  A    between atoms: _160  and  _161
REMARK   65  A    between atoms: _160  and  _163
REMARK   66  A    between atoms: _163  and  _164
REMARK   67  A    between atoms: _168  and  ZN_344
REMARK   68  A    between atoms: _169  and  _171
REMARK   69  A    between atoms: _171  and  _172
REMARK   70  A    between atoms: _171  and  _174
REMARK   71  A    between atoms: _174  and  _175
REMARK   72  A    between atoms: _178  and  _180
REMARK   73  A    between atoms: _180  and  _181
REMARK   74  A    between atoms: _180  and  _183
REMARK   75  A    between atoms: _183  and  _184
REMARK   76  A    between atoms: _184  and  _185
REMARK   77  A    between atoms: _190  and  _192
REMARK   78  A    between atoms: _192  and  _193
REMARK   79  A    between atoms: _192  and  _195
REMARK   80  A    between atoms: _195  and  _196
REMARK   81  A    between atoms: _201  and  _203
REMARK   82  A    between atoms: _203  and  _204
REMARK   83  A    between atoms: _203  and  _206
REMARK   84  A    between atoms: _206  and  _207
REMARK   85  A    between atoms: _210  and  _212
REMARK   86  A    between atoms: _212  and  _213
REMARK   87  A    between atoms: _212  and  _215
REMARK   88  A    between atoms: _215  and  _216
REMARK   89  A    between atoms: _221  and  _222
REMARK   90  A    between atoms: _224  and  _226
REMARK   91  A    between atoms: _226  and  _227
REMARK   92  A    between atoms: _226  and  _229
REMARK   93  A    between atoms: _231  and  _233
REMARK   94  A    between atoms: _233  and  _234
REMARK   95  A    between atoms: _233  and  _236
REMARK   96  A    between atoms: _236  and  _237
REMARK   97  A    between atoms: _241  and  _242
REMARK   98  A    between atoms: _247  and  _249
REMARK   99  A    between atoms: _249  and  _250
REMARK  100  A    between atoms: _249  and  _252
REMARK  101  A    between atoms: _252  and  _253
REMARK  102  A    between atoms: _256  and  _258
REMARK  103  A    between atoms: _258  and  _259
REMARK  104  A    between atoms: _258  and  _261
REMARK  105  A    between atoms: _261  and  _262
REMARK  106  A    between atoms: _265  and  _267
REMARK  107  A    between atoms: _267  and  _268
REMARK  108  A    between atoms: _267  and  _270
REMARK  109  A    between atoms: _270  and  _271
REMARK  110  A    between atoms: _271  and  _272
REMARK  111  A    between atoms: _272  and  ZN_345
REMARK  112  A    between atoms: _274  and  _276
REMARK  113  A    between atoms: _276  and  _277
REMARK  114  A    between atoms: _276  and  _279
REMARK  115  A    between atoms: _279  and  _280
REMARK  116  A    between atoms: _282  and  _284
REMARK  117  A    between atoms: _284  and  _285
REMARK  118  A    between atoms: _289  and  _290
REMARK  119  A    between atoms: _295  and  _297
REMARK  120  A    between atoms: _297  and  _298
REMARK  121  A    between atoms: _297  and  _300
REMARK  122  A    between atoms: _300  and  _301
REMARK  123  A    between atoms: _306  and  _308
REMARK  124  A    between atoms: _308  and  _309
REMARK  125  A    between atoms: _308  and  _311
REMARK  126  A    between atoms: _311  and  _312
REMARK  127  A    between atoms: _312  and  _313
REMARK  128  A    between atoms: _313  and  _314
REMARK  129  A    between atoms: _314  and  _315
REMARK  130  A    between atoms: _319  and  _321
REMARK  131  A    between atoms: _321  and  _322
REMARK  132  A    between atoms: _321  and  _324
REMARK  133  A    between atoms: _326  and  _328
REMARK  134  A    between atoms: _328  and  _329
REMARK  135  A    between atoms: _332  and  _334
REMARK  136  A    between atoms: _334  and  _335
REMARK  137  A    between atoms: _337  and  _339
REMARK  138  A    between atoms: _339  and  _340
REMARK  139  A    between atoms: _339  and  _342
REMARK                            x       y       z     vdW  Elec       q    Type
REMARK                         _______ _______ _______ _____ _____    ______ ____
ROOT
ATOM      1  O   HOH     1      25.819  48.448  75.004  0.00  0.00    +0.000 OA
ENDROOT
TORSDOF 0
REMARK  Name = ../refined-set-2016/2eg7/2eg7_pocket.pdb
REMARK  139 active torsions:
REMARK  status: ('A' for Active; 'I' for Inactive)
REMARK    1  A    between atoms: _1  and  _3
REMARK    2  A    between atoms: _14  and  _17
REMARK    3  A    between atoms: _17  and  _18
REMARK    4  A    between atoms: _23  and  _24
REMARK    5  A    between atoms: _32  and  _34
REMARK    6  A    between atoms: _34  and  _35
REMARK    7  A    between atoms: _34  and  _37
REMARK    8  A    between atoms: _37  and  _38
REMARK    9  A    between atoms: _41  and  _43
REMARK   10  A    between atoms: _43  and  _44
REMARK   11  A    between atoms: _43  and  _46
REMARK   12  A    between atoms: _46  and  _47
REMARK   13  A    between atoms: _47  and  _48
REMARK   14  A    between atoms: _48  and  _49
REMARK   15  A    between atoms: _58  and  _60
REMARK   16  A    between atoms: _60  and  _61
REMARK   17  A    between atoms: _60  and  _63
REMARK   18  A    between atoms: _63  and  _64
REMARK   19  A    between atoms: _64  and  _65
REMARK   20  A    between atoms: _67  and  _69
REMARK   21  A    between atoms: _69  and  _70
REMARK   22  A    between atoms: _69  and  _72
REMARK   23  A    between atoms: _72  and  _73
REMARK   24  A    between atoms: _78  and  _80
REMARK   25  A    between atoms: _80  and  _81
REMARK   26  A    between atoms: _80  and  _83
REMARK   27  A    between atoms: _83  and  _84
REMARK   28  A    between atoms: _87  and  _89
REMARK   29  A    between atoms: _89  and  _90
REMARK   30  A    between atoms: _89  and  _96
REMARK   31  A    between atoms: _90  and  _91
REMARK   32  A    between atoms: _91  and  _92
REMARK   33  A    between atoms: _92  and  _93
REMARK   34  A    between atoms: _93  and  _94
REMARK   35  A    between atoms: _94  and  _98
REMARK   36  A    between atoms: _98  and  _99
REMARK   37  A    between atoms: _98  and  _100
REMARK   38  A    between atoms: _99  and  ZN_344
REMARK   39  A    between atoms: _100  and  ZN_345
REMARK   40  A    between atoms: _101  and  _103
REMARK   41  A    between atoms: _103  and  _104
REMARK   42  A    between atoms: _103  and  _106
REMARK   43  A    between atoms: _106  and  _107
REMARK   44  A    between atoms: _112  and  _113
REMARK   45  A    between atoms: _116  and  _117
REMARK   46  A    between atoms: _122  and  _124
REMARK   47  A    between atoms: _124  and  _125
REMARK   48  A    between atoms: _124  and  _127
REMARK   49  A    between atoms: _127  and  _128
REMARK   50  A    between atoms: _129  and  ZN_344
REMARK   51  A    between atoms: _133  and  _135
REMARK   52  A    between atoms: _135  and  _136
REMARK   53  A    between atoms: _138  and  _140
REMARK   54  A    between atoms: _140  and  _141
REMARK   55  A    between atoms: _140  and  _143
REMARK   56  A    between atoms: _143  and  _144
REMARK   57  A    between atoms: _144  and  _145
REMARK   58  A    between atoms: _148  and  _150
REMARK   59  A    between atoms: _150  and  _151
REMARK   60  A    between atoms: _150  and  _153
REMARK   61  A    between atoms: _153  and  _154
REMARK   62  A    between atoms: _154  and  _155
REMARK   63  A    between atoms: _158  and  _160
REMARK   64  A    between atoms: _160  and  _161
REMARK   65  A    between atoms: _160  and  _163
REMARK   66  A    between atoms: _163  and  _164
REMARK   67  A    between atoms: _168  and  ZN_344
REMARK   68  A    between atoms: _169  and  _171
REMARK   69  A    between atoms: _171  and  _172
REMARK   70  A    between atoms: _171  and  _174
REMARK   71  A    between atoms: _174  and  _175
REMARK   72  A    between atoms: _178  and  _180
REMARK   73  A    between atoms: _180  and  _181
REMARK   74  A    between atoms: _180  and  _183
REMARK   75  A    between atoms: _183  and  _184
REMARK   76  A    between atoms: _184  and  _185
REMARK   77  A    between atoms: _190  and  _192
REMARK   78  A    between atoms: _192  and  _193
REMARK   79  A    between atoms: _192  and  _195
REMARK   80  A    between atoms: _195  and  _196
REMARK   81  A    between atoms: _201  and  _203
REMARK   82  A    between atoms: _203  and  _204
REMARK   83  A    between atoms: _203  and  _206
REMARK   84  A    between atoms: _206  and  _207
REMARK   85  A    between atoms: _210  and  _212
REMARK   86  A    between atoms: _212  and  _213
REMARK   87  A    between atoms: _212  and  _215
REMARK   88  A    between atoms: _215  and  _216
REMARK   89  A    between atoms: _221  and  _222
REMARK   90  A    between atoms: _224  and  _226
REMARK   91  A    between atoms: _226  and  _227
REMARK   92  A    between atoms: _226  and  _229
REMARK   93  A    between atoms: _231  and  _233
REMARK   94  A    between atoms: _233  and  _234
REMARK   95  A    between atoms: _233  and  _236
REMARK   96  A    between atoms: _236  and  _237
REMARK   97  A    between atoms: _241  and  _242
REMARK   98  A    between atoms: _247  and  _249
REMARK   99  A    between atoms: _249  and  _250
REMARK  100  A    between atoms: _249  and  _252
REMARK  101  A    between atoms: _252  and  _253
REMARK  102  A    between atoms: _256  and  _258
REMARK  103  A    between atoms: _258  and  _259
REMARK  104  A    between atoms: _258  and  _261
REMARK  105  A    between atoms: _261  and  _262
REMARK  106  A    between atoms: _265  and  _267
REMARK  107  A    between atoms: _267  and  _268
REMARK  108  A    between atoms: _267  and  _270
REMARK  109  A    between atoms: _270  and  _271
REMARK  110  A    between atoms: _271  and  _272
REMARK  111  A    between atoms: _272  and  ZN_345
REMARK  112  A    between atoms: _274  and  _276
REMARK  113  A    between atoms: _276  and  _277
REMARK  114  A    between atoms: _276  and  _279
REMARK  115  A    between atoms: _279  and  _280
REMARK  116  A    between atoms: _282  and  _284
REMARK  117  A    between atoms: _284  and  _285
REMARK  118  A    between atoms: _289  and  _290
REMARK  119  A    between atoms: _295  and  _297
REMARK  120  A    between atoms: _297  and  _298
REMARK  121  A    between atoms: _297  and  _300
REMARK  122  A    between atoms: _300  and  _301
REMARK  123  A    between atoms: _306  and  _308
REMARK  124  A    between atoms: _308  and  _309
REMARK  125  A    between atoms: _308  and  _311
REMARK  126  A    between atoms: _311  and  _312
REMARK  127  A    between atoms: _312  and  _313
REMARK  128  A    between atoms: _313  and  _314
REMARK  129  A    between atoms: _314  and  _315
REMARK  130  A    between atoms: _319  and  _321
REMARK  131  A    between atoms: _321  and  _322
REMARK  132  A    between atoms: _321  and  _324
REMARK  133  A    between atoms: _326  and  _328
REMARK  134  A    between atoms: _328  and  _329
REMARK  135  A    between atoms: _332  and  _334
REMARK  136  A    between atoms: _334  and  _335
REMARK  137  A    between atoms: _337  and  _339
REMARK  138  A    between atoms: _339  and  _340
REMARK  139  A    between atoms: _339  and  _342
REMARK                            x       y       z     vdW  Elec       q    Type
REMARK                         _______ _______ _______ _____ _____    ______ ____
ROOT
ATOM      1  O   HOH     1      28.808  32.276  68.876  0.00  0.00    +0.000 OA
ENDROOT
TORSDOF 0
REMARK  Name = ../refined-set-2016/2eg7/2eg7_pocket.pdb
REMARK  139 active torsions:
REMARK  status: ('A' for Active; 'I' for Inactive)
REMARK    1  A    between atoms: _1  and  _3
REMARK    2  A    between atoms: _14  and  _17
REMARK    3  A    between atoms: _17  and  _18
REMARK    4  A    between atoms: _23  and  _24
REMARK    5  A    between atoms: _32  and  _34
REMARK    6  A    between atoms: _34  and  _35
REMARK    7  A    between atoms: _34  and  _37
REMARK    8  A    between atoms: _37  and  _38
REMARK    9  A    between atoms: _41  and  _43
REMARK   10  A    between atoms: _43  and  _44
REMARK   11  A    between atoms: _43  and  _46
REMARK   12  A    between atoms: _46  and  _47
REMARK   13  A    between atoms: _47  and  _48
REMARK   14  A    between atoms: _48  and  _49
REMARK   15  A    between atoms: _58  and  _60
REMARK   16  A    between atoms: _60  and  _61
REMARK   17  A    between atoms: _60  and  _63
REMARK   18  A    between atoms: _63  and  _64
REMARK   19  A    between atoms: _64  and  _65
REMARK   20  A    between atoms: _67  and  _69
REMARK   21  A    between atoms: _69  and  _70
REMARK   22  A    between atoms: _69  and  _72
REMARK   23  A    between atoms: _72  and  _73
REMARK   24  A    between atoms: _78  and  _80
REMARK   25  A    between atoms: _80  and  _81
REMARK   26  A    between atoms: _80  and  _83
REMARK   27  A    between atoms: _83  and  _84
REMARK   28  A    between atoms: _87  and  _89
REMARK   29  A    between atoms: _89  and  _90
REMARK   30  A    between atoms: _89  and  _96
REMARK   31  A    between atoms: _90  and  _91
REMARK   32  A    between atoms: _91  and  _92
REMARK   33  A    between atoms: _92  and  _93
REMARK   34  A    between atoms: _93  and  _94
REMARK   35  A    between atoms: _94  and  _98
REMARK   36  A    between atoms: _98  and  _99
REMARK   37  A    between atoms: _98  and  _100
REMARK   38  A    between atoms: _99  and  ZN_344
REMARK   39  A    between atoms: _100  and  ZN_345
REMARK   40  A    between atoms: _101  and  _103
REMARK   41  A    between atoms: _103  and  _104
REMARK   42  A    between atoms: _103  and  _106
REMARK   43  A    between atoms: _106  and  _107
REMARK   44  A    between atoms: _112  and  _113
REMARK   45  A    between atoms: _116  and  _117
REMARK   46  A    between atoms: _122  and  _124
REMARK   47  A    between atoms: _124  and  _125
REMARK   48  A    between atoms: _124  and  _127
REMARK   49  A    between atoms: _127  and  _128
REMARK   50  A    between atoms: _129  and  ZN_344
REMARK   51  A    between atoms: _133  and  _135
REMARK   52  A    between atoms: _135  and  _136
REMARK   53  A    between atoms: _138  and  _140
REMARK   54  A    between atoms: _140  and  _141
REMARK   55  A    between atoms: _140  and  _143
REMARK   56  A    between atoms: _143  and  _144
REMARK   57  A    between atoms: _144  and  _145
REMARK   58  A    between atoms: _148  and  _150
REMARK   59  A    between atoms: _150  and  _151
REMARK   60  A    between atoms: _150  and  _153
REMARK   61  A    between atoms: _153  and  _154
REMARK   62  A    between atoms: _154  and  _155
REMARK   63  A    between atoms: _158  and  _160
REMARK   64  A    between atoms: _160  and  _161
REMARK   65  A    between atoms: _160  and  _163
REMARK   66  A    between atoms: _163  and  _164
REMARK   67  A    between atoms: _168  and  ZN_344
REMARK   68  A    between atoms: _169  and  _171
REMARK   69  A    between atoms: _171  and  _172
REMARK   70  A    between atoms: _171  and  _174
REMARK   71  A    between atoms: _174  and  _175
REMARK   72  A    between atoms: _178  and  _180
REMARK   73  A    between atoms: _180  and  _181
REMARK   74  A    between atoms: _180  and  _183
REMARK   75  A    between atoms: _183  and  _184
REMARK   76  A    between atoms: _184  and  _185
REMARK   77  A    between atoms: _190  and  _192
REMARK   78  A    between atoms: _192  and  _193
REMARK   79  A    between atoms: _192  and  _195
REMARK   80  A    between atoms: _195  and  _196
REMARK   81  A    between atoms: _201  and  _203
REMARK   82  A    between atoms: _203  and  _204
REMARK   83  A    between atoms: _203  and  _206
REMARK   84  A    between atoms: _206  and  _207
REMARK   85  A    between atoms: _210  and  _212
REMARK   86  A    between atoms: _212  and  _213
REMARK   87  A    between atoms: _212  and  _215
REMARK   88  A    between atoms: _215  and  _216
REMARK   89  A    between atoms: _221  and  _222
REMARK   90  A    between atoms: _224  and  _226
REMARK   91  A    between atoms: _226  and  _227
REMARK   92  A    between atoms: _226  and  _229
REMARK   93  A    between atoms: _231  and  _233
REMARK   94  A    between atoms: _233  and  _234
REMARK   95  A    between atoms: _233  and  _236
REMARK   96  A    between atoms: _236  and  _237
REMARK   97  A    between atoms: _241  and  _242
REMARK   98  A    between atoms: _247  and  _249
REMARK   99  A    between atoms: _249  and  _250
REMARK  100  A    between atoms: _249  and  _252
REMARK  101  A    between atoms: _252  and  _253
REMARK  102  A    between atoms: _256  and  _258
REMARK  103  A    between atoms: _258  and  _259
REMARK  104  A    between atoms: _258  and  _261
REMARK  105  A    between atoms: _261  and  _262
REMARK  106  A    between atoms: _265  and  _267
REMARK  107  A    between atoms: _267  and  _268
REMARK  108  A    between atoms: _267  and  _270
REMARK  109  A    between atoms: _270  and  _271
REMARK  110  A    between atoms: _271  and  _272
REMARK  111  A    between atoms: _272  and  ZN_345
REMARK  112  A    between atoms: _274  and  _276
REMARK  113  A    between atoms: _276  and  _277
REMARK  114  A    between atoms: _276  and  _279
REMARK  115  A    between atoms: _279  and  _280
REMARK  116  A    between atoms: _282  and  _284
REMARK  117  A    between atoms: _284  and  _285
REMARK  118  A    between atoms: _289  and  _290
REMARK  119  A    between atoms: _295  and  _297
REMARK  120  A    between atoms: _297  and  _298
REMARK  121  A    between atoms: _297  and  _300
REMARK  122  A    between atoms: _300  and  _301
REMARK  123  A    between atoms: _306  and  _308
REMARK  124  A    between atoms: _308  and  _309
REMARK  125  A    between atoms: _308  and  _311
REMARK  126  A    between atoms: _311  and  _312
REMARK  127  A    between atoms: _312  and  _313
REMARK  128  A    between atoms: _313  and  _314
REMARK  129  A    between atoms: _314  and  _315
REMARK  130  A    between atoms: _319  and  _321
REMARK  131  A    between atoms: _321  and  _322
REMARK  132  A    between atoms: _321  and  _324
REMARK  133  A    between atoms: _326  and  _328
REMARK  134  A    between atoms: _328  and  _329
REMARK  135  A    between atoms: _332  and  _334
REMARK  136  A    between atoms: _334  and  _335
REMARK  137  A    between atoms: _337  and  _339
REMARK  138  A    between atoms: _339  and  _340
REMARK  139  A    between atoms: _339  and  _342
REMARK                            x       y       z     vdW  Elec       q    Type
REMARK                         _______ _______ _______ _____ _____    ______ ____
ROOT
ATOM      1  O   HOH     1      35.028  35.158  74.661  0.00  0.00    +0.000 OA
ENDROOT
TORSDOF 0
REMARK  Name = ../refined-set-2016/2eg7/2eg7_pocket.pdb
REMARK  139 active torsions:
REMARK  status: ('A' for Active; 'I' for Inactive)
REMARK    1  A    between atoms: _1  and  _3
REMARK    2  A    between atoms: _14  and  _17
REMARK    3  A    between atoms: _17  and  _18
REMARK    4  A    between atoms: _23  and  _24
REMARK    5  A    between atoms: _32  and  _34
REMARK    6  A    between atoms: _34  and  _35
REMARK    7  A    between atoms: _34  and  _37
REMARK    8  A    between atoms: _37  and  _38
REMARK    9  A    between atoms: _41  and  _43
REMARK   10  A    between atoms: _43  and  _44
REMARK   11  A    between atoms: _43  and  _46
REMARK   12  A    between atoms: _46  and  _47
REMARK   13  A    between atoms: _47  and  _48
REMARK   14  A    between atoms: _48  and  _49
REMARK   15  A    between atoms: _58  and  _60
REMARK   16  A    between atoms: _60  and  _61
REMARK   17  A    between atoms: _60  and  _63
REMARK   18  A    between atoms: _63  and  _64
REMARK   19  A    between atoms: _64  and  _65
REMARK   20  A    between atoms: _67  and  _69
REMARK   21  A    between atoms: _69  and  _70
REMARK   22  A    between atoms: _69  and  _72
REMARK   23  A    between atoms: _72  and  _73
REMARK   24  A    between atoms: _78  and  _80
REMARK   25  A    between atoms: _80  and  _81
REMARK   26  A    between atoms: _80  and  _83
REMARK   27  A    between atoms: _83  and  _84
REMARK   28  A    between atoms: _87  and  _89
REMARK   29  A    between atoms: _89  and  _90
REMARK   30  A    between atoms: _89  and  _96
REMARK   31  A    between atoms: _90  and  _91
REMARK   32  A    between atoms: _91  and  _92
REMARK   33  A    between atoms: _92  and  _93
REMARK   34  A    between atoms: _93  and  _94
REMARK   35  A    between atoms: _94  and  _98
REMARK   36  A    between atoms: _98  and  _99
REMARK   37  A    between atoms: _98  and  _100
REMARK   38  A    between atoms: _99  and  ZN_344
REMARK   39  A    between atoms: _100  and  ZN_345
REMARK   40  A    between atoms: _101  and  _103
REMARK   41  A    between atoms: _103  and  _104
REMARK   42  A    between atoms: _103  and  _106
REMARK   43  A    between atoms: _106  and  _107
REMARK   44  A    between atoms: _112  and  _113
REMARK   45  A    between atoms: _116  and  _117
REMARK   46  A    between atoms: _122  and  _124
REMARK   47  A    between atoms: _124  and  _125
REMARK   48  A    between atoms: _124  and  _127
REMARK   49  A    between atoms: _127  and  _128
REMARK   50  A    between atoms: _129  and  ZN_344
REMARK   51  A    between atoms: _133  and  _135
REMARK   52  A    between atoms: _135  and  _136
REMARK   53  A    between atoms: _138  and  _140
REMARK   54  A    between atoms: _140  and  _141
REMARK   55  A    between atoms: _140  and  _143
REMARK   56  A    between atoms: _143  and  _144
REMARK   57  A    between atoms: _144  and  _145
REMARK   58  A    between atoms: _148  and  _150
REMARK   59  A    between atoms: _150  and  _151
REMARK   60  A    between atoms: _150  and  _153
REMARK   61  A    between atoms: _153  and  _154
REMARK   62  A    between atoms: _154  and  _155
REMARK   63  A    between atoms: _158  and  _160
REMARK   64  A    between atoms: _160  and  _161
REMARK   65  A    between atoms: _160  and  _163
REMARK   66  A    between atoms: _163  and  _164
REMARK   67  A    between atoms: _168  and  ZN_344
REMARK   68  A    between atoms: _169  and  _171
REMARK   69  A    between atoms: _171  and  _172
REMARK   70  A    between atoms: _171  and  _174
REMARK   71  A    between atoms: _174  and  _175
REMARK   72  A    between atoms: _178  and  _180
REMARK   73  A    between atoms: _180  and  _181
REMARK   74  A    between atoms: _180  and  _183
REMARK   75  A    between atoms: _183  and  _184
REMARK   76  A    between atoms: _184  and  _185
REMARK   77  A    between atoms: _190  and  _192
REMARK   78  A    between atoms: _192  and  _193
REMARK   79  A    between atoms: _192  and  _195
REMARK   80  A    between atoms: _195  and  _196
REMARK   81  A    between atoms: _201  and  _203
REMARK   82  A    between atoms: _203  and  _204
REMARK   83  A    between atoms: _203  and  _206
REMARK   84  A    between atoms: _206  and  _207
REMARK   85  A    between atoms: _210  and  _212
REMARK   86  A    between atoms: _212  and  _213
REMARK   87  A    between atoms: _212  and  _215
REMARK   88  A    between atoms: _215  and  _216
REMARK   89  A    between atoms: _221  and  _222
REMARK   90  A    between atoms: _224  and  _226
REMARK   91  A    between atoms: _226  and  _227
REMARK   92  A    between atoms: _226  and  _229
REMARK   93  A    between atoms: _231  and  _233
REMARK   94  A    between atoms: _233  and  _234
REMARK   95  A    between atoms: _233  and  _236
REMARK   96  A    between atoms: _236  and  _237
REMARK   97  A    between atoms: _241  and  _242
REMARK   98  A    between atoms: _247  and  _249
REMARK   99  A    between atoms: _249  and  _250
REMARK  100  A    between atoms: _249  and  _252
REMARK  101  A    between atoms: _252  and  _253
REMARK  102  A    between atoms: _256  and  _258
REMARK  103  A    between atoms: _258  and  _259
REMARK  104  A    between atoms: _258  and  _261
REMARK  105  A    between atoms: _261  and  _262
REMARK  106  A    between atoms: _265  and  _267
REMARK  107  A    between atoms: _267  and  _268
REMARK  108  A    between atoms: _267  and  _270
REMARK  109  A    between atoms: _270  and  _271
REMARK  110  A    between atoms: _271  and  _272
REMARK  111  A    between atoms: _272  and  ZN_345
REMARK  112  A    between atoms: _274  and  _276
REMARK  113  A    between atoms: _276  and  _277
REMARK  114  A    between atoms: _276  and  _279
REMARK  115  A    between atoms: _279  and  _280
REMARK  116  A    between atoms: _282  and  _284
REMARK  117  A    between atoms: _284  and  _285
REMARK  118  A    between atoms: _289  and  _290
REMARK  119  A    between atoms: _295  and  _297
REMARK  120  A    between atoms: _297  and  _298
REMARK  121  A    between atoms: _297  and  _300
REMARK  122  A    between atoms: _300  and  _301
REMARK  123  A    between atoms: _306  and  _308
REMARK  124  A    between atoms: _308  and  _309
REMARK  125  A    between atoms: _308  and  _311
REMARK  126  A    between atoms: _311  and  _312
REMARK  127  A    between atoms: _312  and  _313
REMARK  128  A    between atoms: _313  and  _314
REMARK  129  A    between atoms: _314  and  _315
REMARK  130  A    between atoms: _319  and  _321
REMARK  131  A    between atoms: _321  and  _322
REMARK  132  A    between atoms: _321  and  _324
REMARK  133  A    between atoms: _326  and  _328
REMARK  134  A    between atoms: _328  and  _329
REMARK  135  A    between atoms: _332  and  _334
REMARK  136  A    between atoms: _334  and  _335
REMARK  137  A    between atoms: _337  and  _339
REMARK  138  A    between atoms: _339  and  _340
REMARK  139  A    between atoms: _339  and  _342
REMARK                            x       y       z     vdW  Elec       q    Type
REMARK                         _______ _______ _______ _____ _____    ______ ____
ROOT
ATOM      1  O   HOH     1      22.632  39.657  66.635  0.00  0.00    +0.000 OA
ENDROOT
TORSDOF 0
REMARK  Name = ../refined-set-2016/2eg7/2eg7_pocket.pdb
REMARK  139 active torsions:
REMARK  status: ('A' for Active; 'I' for Inactive)
REMARK    1  A    between atoms: _1  and  _3
REMARK    2  A    between atoms: _14  and  _17
REMARK    3  A    between atoms: _17  and  _18
REMARK    4  A    between atoms: _23  and  _24
REMARK    5  A    between atoms: _32  and  _34
REMARK    6  A    between atoms: _34  and  _35
REMARK    7  A    between atoms: _34  and  _37
REMARK    8  A    between atoms: _37  and  _38
REMARK    9  A    between atoms: _41  and  _43
REMARK   10  A    between atoms: _43  and  _44
REMARK   11  A    between atoms: _43  and  _46
REMARK   12  A    between atoms: _46  and  _47
REMARK   13  A    between atoms: _47  and  _48
REMARK   14  A    between atoms: _48  and  _49
REMARK   15  A    between atoms: _58  and  _60
REMARK   16  A    between atoms: _60  and  _61
REMARK   17  A    between atoms: _60  and  _63
REMARK   18  A    between atoms: _63  and  _64
REMARK   19  A    between atoms: _64  and  _65
REMARK   20  A    between atoms: _67  and  _69
REMARK   21  A    between atoms: _69  and  _70
REMARK   22  A    between atoms: _69  and  _72
REMARK   23  A    between atoms: _72  and  _73
REMARK   24  A    between atoms: _78  and  _80
REMARK   25  A    between atoms: _80  and  _81
REMARK   26  A    between atoms: _80  and  _83
REMARK   27  A    between atoms: _83  and  _84
REMARK   28  A    between atoms: _87  and  _89
REMARK   29  A    between atoms: _89  and  _90
REMARK   30  A    between atoms: _89  and  _96
REMARK   31  A    between atoms: _90  and  _91
REMARK   32  A    between atoms: _91  and  _92
REMARK   33  A    between atoms: _92  and  _93
REMARK   34  A    between atoms: _93  and  _94
REMARK   35  A    between atoms: _94  and  _98
REMARK   36  A    between atoms: _98  and  _99
REMARK   37  A    between atoms: _98  and  _100
REMARK   38  A    between atoms: _99  and  ZN_344
REMARK   39  A    between atoms: _100  and  ZN_345
REMARK   40  A    between atoms: _101  and  _103
REMARK   41  A    between atoms: _103  and  _104
REMARK   42  A    between atoms: _103  and  _106
REMARK   43  A    between atoms: _106  and  _107
REMARK   44  A    between atoms: _112  and  _113
REMARK   45  A    between atoms: _116  and  _117
REMARK   46  A    between atoms: _122  and  _124
REMARK   47  A    between atoms: _124  and  _125
REMARK   48  A    between atoms: _124  and  _127
REMARK   49  A    between atoms: _127  and  _128
REMARK   50  A    between atoms: _129  and  ZN_344
REMARK   51  A    between atoms: _133  and  _135
REMARK   52  A    between atoms: _135  and  _136
REMARK   53  A    between atoms: _138  and  _140
REMARK   54  A    between atoms: _140  and  _141
REMARK   55  A    between atoms: _140  and  _143
REMARK   56  A    between atoms: _143  and  _144
REMARK   57  A    between atoms: _144  and  _145
REMARK   58  A    between atoms: _148  and  _150
REMARK   59  A    between atoms: _150  and  _151
REMARK   60  A    between atoms: _150  and  _153
REMARK   61  A    between atoms: _153  and  _154
REMARK   62  A    between atoms: _154  and  _155
REMARK   63  A    between atoms: _158  and  _160
REMARK   64  A    between atoms: _160  and  _161
REMARK   65  A    between atoms: _160  and  _163
REMARK   66  A    between atoms: _163  and  _164
REMARK   67  A    between atoms: _168  and  ZN_344
REMARK   68  A    between atoms: _169  and  _171
REMARK   69  A    between atoms: _171  and  _172
REMARK   70  A    between atoms: _171  and  _174
REMARK   71  A    between atoms: _174  and  _175
REMARK   72  A    between atoms: _178  and  _180
REMARK   73  A    between atoms: _180  and  _181
REMARK   74  A    between atoms: _180  and  _183
REMARK   75  A    between atoms: _183  and  _184
REMARK   76  A    between atoms: _184  and  _185
REMARK   77  A    between atoms: _190  and  _192
REMARK   78  A    between atoms: _192  and  _193
REMARK   79  A    between atoms: _192  and  _195
REMARK   80  A    between atoms: _195  and  _196
REMARK   81  A    between atoms: _201  and  _203
REMARK   82  A    between atoms: _203  and  _204
REMARK   83  A    between atoms: _203  and  _206
REMARK   84  A    between atoms: _206  and  _207
REMARK   85  A    between atoms: _210  and  _212
REMARK   86  A    between atoms: _212  and  _213
REMARK   87  A    between atoms: _212  and  _215
REMARK   88  A    between atoms: _215  and  _216
REMARK   89  A    between atoms: _221  and  _222
REMARK   90  A    between atoms: _224  and  _226
REMARK   91  A    between atoms: _226  and  _227
REMARK   92  A    between atoms: _226  and  _229
REMARK   93  A    between atoms: _231  and  _233
REMARK   94  A    between atoms: _233  and  _234
REMARK   95  A    between atoms: _233  and  _236
REMARK   96  A    between atoms: _236  and  _237
REMARK   97  A    between atoms: _241  and  _242
REMARK   98  A    between atoms: _247  and  _249
REMARK   99  A    between atoms: _249  and  _250
REMARK  100  A    between atoms: _249  and  _252
REMARK  101  A    between atoms: _252  and  _253
REMARK  102  A    between atoms: _256  and  _258
REMARK  103  A    between atoms: _258  and  _259
REMARK  104  A    between atoms: _258  and  _261
REMARK  105  A    between atoms: _261  and  _262
REMARK  106  A    between atoms: _265  and  _267
REMARK  107  A    between atoms: _267  and  _268
REMARK  108  A    between atoms: _267  and  _270
REMARK  109  A    between atoms: _270  and  _271
REMARK  110  A    between atoms: _271  and  _272
REMARK  111  A    between atoms: _272  and  ZN_345
REMARK  112  A    between atoms: _274  and  _276
REMARK  113  A    between atoms: _276  and  _277
REMARK  114  A    between atoms: _276  and  _279
REMARK  115  A    between atoms: _279  and  _280
REMARK  116  A    between atoms: _282  and  _284
REMARK  117  A    between atoms: _284  and  _285
REMARK  118  A    between atoms: _289  and  _290
REMARK  119  A    between atoms: _295  and  _297
REMARK  120  A    between atoms: _297  and  _298
REMARK  121  A    between atoms: _297  and  _300
REMARK  122  A    between atoms: _300  and  _301
REMARK  123  A    between atoms: _306  and  _308
REMARK  124  A    between atoms: _308  and  _309
REMARK  125  A    between atoms: _308  and  _311
REMARK  126  A    between atoms: _311  and  _312
REMARK  127  A    between atoms: _312  and  _313
REMARK  128  A    between atoms: _313  and  _314
REMARK  129  A    between atoms: _314  and  _315
REMARK  130  A    between atoms: _319  and  _321
REMARK  131  A    between atoms: _321  and  _322
REMARK  132  A    between atoms: _321  and  _324
REMARK  133  A    between atoms: _326  and  _328
REMARK  134  A    between atoms: _328  and  _329
REMARK  135  A    between atoms: _332  and  _334
REMARK  136  A    between atoms: _334  and  _335
REMARK  137  A    between atoms: _337  and  _339
REMARK  138  A    between atoms: _339  and  _340
REMARK  139  A    between atoms: _339  and  _342
REMARK                            x       y       z     vdW  Elec       q    Type
REMARK                         _______ _______ _______ _____ _____    ______ ____
ROOT
ATOM      1  O   HOH     1      17.664  41.183  75.044  0.00  0.00    +0.000 OA
ENDROOT
TORSDOF 0
REMARK  Name = ../refined-set-2016/2eg7/2eg7_pocket.pdb
REMARK  139 active torsions:
REMARK  status: ('A' for Active; 'I' for Inactive)
REMARK    1  A    between atoms: _1  and  _3
REMARK    2  A    between atoms: _14  and  _17
REMARK    3  A    between atoms: _17  and  _18
REMARK    4  A    between atoms: _23  and  _24
REMARK    5  A    between atoms: _32  and  _34
REMARK    6  A    between atoms: _34  and  _35
REMARK    7  A    between atoms: _34  and  _37
REMARK    8  A    between atoms: _37  and  _38
REMARK    9  A    between atoms: _41  and  _43
REMARK   10  A    between atoms: _43  and  _44
REMARK   11  A    between atoms: _43  and  _46
REMARK   12  A    between atoms: _46  and  _47
REMARK   13  A    between atoms: _47  and  _48
REMARK   14  A    between atoms: _48  and  _49
REMARK   15  A    between atoms: _58  and  _60
REMARK   16  A    between atoms: _60  and  _61
REMARK   17  A    between atoms: _60  and  _63
REMARK   18  A    between atoms: _63  and  _64
REMARK   19  A    between atoms: _64  and  _65
REMARK   20  A    between atoms: _67  and  _69
REMARK   21  A    between atoms: _69  and  _70
REMARK   22  A    between atoms: _69  and  _72
REMARK   23  A    between atoms: _72  and  _73
REMARK   24  A    between atoms: _78  and  _80
REMARK   25  A    between atoms: _80  and  _81
REMARK   26  A    between atoms: _80  and  _83
REMARK   27  A    between atoms: _83  and  _84
REMARK   28  A    between atoms: _87  and  _89
REMARK   29  A    between atoms: _89  and  _90
REMARK   30  A    between atoms: _89  and  _96
REMARK   31  A    between atoms: _90  and  _91
REMARK   32  A    between atoms: _91  and  _92
REMARK   33  A    between atoms: _92  and  _93
REMARK   34  A    between atoms: _93  and  _94
REMARK   35  A    between atoms: _94  and  _98
REMARK   36  A    between atoms: _98  and  _99
REMARK   37  A    between atoms: _98  and  _100
REMARK   38  A    between atoms: _99  and  ZN_344
REMARK   39  A    between atoms: _100  and  ZN_345
REMARK   40  A    between atoms: _101  and  _103
REMARK   41  A    between atoms: _103  and  _104
REMARK   42  A    between atoms: _103  and  _106
REMARK   43  A    between atoms: _106  and  _107
REMARK   44  A    between atoms: _112  and  _113
REMARK   45  A    between atoms: _116  and  _117
REMARK   46  A    between atoms: _122  and  _124
REMARK   47  A    between atoms: _124  and  _125
REMARK   48  A    between atoms: _124  and  _127
REMARK   49  A    between atoms: _127  and  _128
REMARK   50  A    between atoms: _129  and  ZN_344
REMARK   51  A    between atoms: _133  and  _135
REMARK   52  A    between atoms: _135  and  _136
REMARK   53  A    between atoms: _138  and  _140
REMARK   54  A    between atoms: _140  and  _141
REMARK   55  A    between atoms: _140  and  _143
REMARK   56  A    between atoms: _143  and  _144
REMARK   57  A    between atoms: _144  and  _145
REMARK   58  A    between atoms: _148  and  _150
REMARK   59  A    between atoms: _150  and  _151
REMARK   60  A    between atoms: _150  and  _153
REMARK   61  A    between atoms: _153  and  _154
REMARK   62  A    between atoms: _154  and  _155
REMARK   63  A    between atoms: _158  and  _160
REMARK   64  A    between atoms: _160  and  _161
REMARK   65  A    between atoms: _160  and  _163
REMARK   66  A    between atoms: _163  and  _164
REMARK   67  A    between atoms: _168  and  ZN_344
REMARK   68  A    between atoms: _169  and  _171
REMARK   69  A    between atoms: _171  and  _172
REMARK   70  A    between atoms: _171  and  _174
REMARK   71  A    between atoms: _174  and  _175
REMARK   72  A    between atoms: _178  and  _180
REMARK   73  A    between atoms: _180  and  _181
REMARK   74  A    between atoms: _180  and  _183
REMARK   75  A    between atoms: _183  and  _184
REMARK   76  A    between atoms: _184  and  _185
REMARK   77  A    between atoms: _190  and  _192
REMARK   78  A    between atoms: _192  and  _193
REMARK   79  A    between atoms: _192  and  _195
REMARK   80  A    between atoms: _195  and  _196
REMARK   81  A    between atoms: _201  and  _203
REMARK   82  A    between atoms: _203  and  _204
REMARK   83  A    between atoms: _203  and  _206
REMARK   84  A    between atoms: _206  and  _207
REMARK   85  A    between atoms: _210  and  _212
REMARK   86  A    between atoms: _212  and  _213
REMARK   87  A    between atoms: _212  and  _215
REMARK   88  A    between atoms: _215  and  _216
REMARK   89  A    between atoms: _221  and  _222
REMARK   90  A    between atoms: _224  and  _226
REMARK   91  A    between atoms: _226  and  _227
REMARK   92  A    between atoms: _226  and  _229
REMARK   93  A    between atoms: _231  and  _233
REMARK   94  A    between atoms: _233  and  _234
REMARK   95  A    between atoms: _233  and  _236
REMARK   96  A    between atoms: _236  and  _237
REMARK   97  A    between atoms: _241  and  _242
REMARK   98  A    between atoms: _247  and  _249
REMARK   99  A    between atoms: _249  and  _250
REMARK  100  A    between atoms: _249  and  _252
REMARK  101  A    between atoms: _252  and  _253
REMARK  102  A    between atoms: _256  and  _258
REMARK  103  A    between atoms: _258  and  _259
REMARK  104  A    between atoms: _258  and  _261
REMARK  105  A    between atoms: _261  and  _262
REMARK  106  A    between atoms: _265  and  _267
REMARK  107  A    between atoms: _267  and  _268
REMARK  108  A    between atoms: _267  and  _270
REMARK  109  A    between atoms: _270  and  _271
REMARK  110  A    between atoms: _271  and  _272
REMARK  111  A    between atoms: _272  and  ZN_345
REMARK  112  A    between atoms: _274  and  _276
REMARK  113  A    between atoms: _276  and  _277
REMARK  114  A    between atoms: _276  and  _279
REMARK  115  A    between atoms: _279  and  _280
REMARK  116  A    between atoms: _282  and  _284
REMARK  117  A    between atoms: _284  and  _285
REMARK  118  A    between atoms: _289  and  _290
REMARK  119  A    between atoms: _295  and  _297
REMARK  120  A    between atoms: _297  and  _298
REMARK  121  A    between atoms: _297  and  _300
REMARK  122  A    between atoms: _300  and  _301
REMARK  123  A    between atoms: _306  and  _308
REMARK  124  A    between atoms: _308  and  _309
REMARK  125  A    between atoms: _308  and  _311
REMARK  126  A    between atoms: _311  and  _312
REMARK  127  A    between atoms: _312  and  _313
REMARK  128  A    between atoms: _313  and  _314
REMARK  129  A    between atoms: _314  and  _315
REMARK  130  A    between atoms: _319  and  _321
REMARK  131  A    between atoms: _321  and  _322
REMARK  132  A    between atoms: _321  and  _324
REMARK  133  A    between atoms: _326  and  _328
REMARK  134  A    between atoms: _328  and  _329
REMARK  135  A    between atoms: _332  and  _334
REMARK  136  A    between atoms: _334  and  _335
REMARK  137  A    between atoms: _337  and  _339
REMARK  138  A    between atoms: _339  and  _340
REMARK  139  A    between atoms: _339  and  _342
REMARK                            x       y       z     vdW  Elec       q    Type
REMARK                         _______ _______ _______ _____ _____    ______ ____
ROOT
ATOM      1  O   HOH     1      23.639  50.954  71.504  0.00  0.00    +0.000 OA
ENDROOT
TORSDOF 0
REMARK  Name = ../refined-set-2016/2eg7/2eg7_pocket.pdb
REMARK  139 active torsions:
REMARK  status: ('A' for Active; 'I' for Inactive)
REMARK    1  A    between atoms: _1  and  _3
REMARK    2  A    between atoms: _14  and  _17
REMARK    3  A    between atoms: _17  and  _18
REMARK    4  A    between atoms: _23  and  _24
REMARK    5  A    between atoms: _32  and  _34
REMARK    6  A    between atoms: _34  and  _35
REMARK    7  A    between atoms: _34  and  _37
REMARK    8  A    between atoms: _37  and  _38
REMARK    9  A    between atoms: _41  and  _43
REMARK   10  A    between atoms: _43  and  _44
REMARK   11  A    between atoms: _43  and  _46
REMARK   12  A    between atoms: _46  and  _47
REMARK   13  A    between atoms: _47  and  _48
REMARK   14  A    between atoms: _48  and  _49
REMARK   15  A    between atoms: _58  and  _60
REMARK   16  A    between atoms: _60  and  _61
REMARK   17  A    between atoms: _60  and  _63
REMARK   18  A    between atoms: _63  and  _64
REMARK   19  A    between atoms: _64  and  _65
REMARK   20  A    between atoms: _67  and  _69
REMARK   21  A    between atoms: _69  and  _70
REMARK   22  A    between atoms: _69  and  _72
REMARK   23  A    between atoms: _72  and  _73
REMARK   24  A    between atoms: _78  and  _80
REMARK   25  A    between atoms: _80  and  _81
REMARK   26  A    between atoms: _80  and  _83
REMARK   27  A    between atoms: _83  and  _84
REMARK   28  A    between atoms: _87  and  _89
REMARK   29  A    between atoms: _89  and  _90
REMARK   30  A    between atoms: _89  and  _96
REMARK   31  A    between atoms: _90  and  _91
REMARK   32  A    between atoms: _91  and  _92
REMARK   33  A    between atoms: _92  and  _93
REMARK   34  A    between atoms: _93  and  _94
REMARK   35  A    between atoms: _94  and  _98
REMARK   36  A    between atoms: _98  and  _99
REMARK   37  A    between atoms: _98  and  _100
REMARK   38  A    between atoms: _99  and  ZN_344
REMARK   39  A    between atoms: _100  and  ZN_345
REMARK   40  A    between atoms: _101  and  _103
REMARK   41  A    between atoms: _103  and  _104
REMARK   42  A    between atoms: _103  and  _106
REMARK   43  A    between atoms: _106  and  _107
REMARK   44  A    between atoms: _112  and  _113
REMARK   45  A    between atoms: _116  and  _117
REMARK   46  A    between atoms: _122  and  _124
REMARK   47  A    between atoms: _124  and  _125
REMARK   48  A    between atoms: _124  and  _127
REMARK   49  A    between atoms: _127  and  _128
REMARK   50  A    between atoms: _129  and  ZN_344
REMARK   51  A    between atoms: _133  and  _135
REMARK   52  A    between atoms: _135  and  _136
REMARK   53  A    between atoms: _138  and  _140
REMARK   54  A    between atoms: _140  and  _141
REMARK   55  A    between atoms: _140  and  _143
REMARK   56  A    between atoms: _143  and  _144
REMARK   57  A    between atoms: _144  and  _145
REMARK   58  A    between atoms: _148  and  _150
REMARK   59  A    between atoms: _150  and  _151
REMARK   60  A    between atoms: _150  and  _153
REMARK   61  A    between atoms: _153  and  _154
REMARK   62  A    between atoms: _154  and  _155
REMARK   63  A    between atoms: _158  and  _160
REMARK   64  A    between atoms: _160  and  _161
REMARK   65  A    between atoms: _160  and  _163
REMARK   66  A    between atoms: _163  and  _164
REMARK   67  A    between atoms: _168  and  ZN_344
REMARK   68  A    between atoms: _169  and  _171
REMARK   69  A    between atoms: _171  and  _172
REMARK   70  A    between atoms: _171  and  _174
REMARK   71  A    between atoms: _174  and  _175
REMARK   72  A    between atoms: _178  and  _180
REMARK   73  A    between atoms: _180  and  _181
REMARK   74  A    between atoms: _180  and  _183
REMARK   75  A    between atoms: _183  and  _184
REMARK   76  A    between atoms: _184  and  _185
REMARK   77  A    between atoms: _190  and  _192
REMARK   78  A    between atoms: _192  and  _193
REMARK   79  A    between atoms: _192  and  _195
REMARK   80  A    between atoms: _195  and  _196
REMARK   81  A    between atoms: _201  and  _203
REMARK   82  A    between atoms: _203  and  _204
REMARK   83  A    between atoms: _203  and  _206
REMARK   84  A    between atoms: _206  and  _207
REMARK   85  A    between atoms: _210  and  _212
REMARK   86  A    between atoms: _212  and  _213
REMARK   87  A    between atoms: _212  and  _215
REMARK   88  A    between atoms: _215  and  _216
REMARK   89  A    between atoms: _221  and  _222
REMARK   90  A    between atoms: _224  and  _226
REMARK   91  A    between atoms: _226  and  _227
REMARK   92  A    between atoms: _226  and  _229
REMARK   93  A    between atoms: _231  and  _233
REMARK   94  A    between atoms: _233  and  _234
REMARK   95  A    between atoms: _233  and  _236
REMARK   96  A    between atoms: _236  and  _237
REMARK   97  A    between atoms: _241  and  _242
REMARK   98  A    between atoms: _247  and  _249
REMARK   99  A    between atoms: _249  and  _250
REMARK  100  A    between atoms: _249  and  _252
REMARK  101  A    between atoms: _252  and  _253
REMARK  102  A    between atoms: _256  and  _258
REMARK  103  A    between atoms: _258  and  _259
REMARK  104  A    between atoms: _258  and  _261
REMARK  105  A    between atoms: _261  and  _262
REMARK  106  A    between atoms: _265  and  _267
REMARK  107  A    between atoms: _267  and  _268
REMARK  108  A    between atoms: _267  and  _270
REMARK  109  A    between atoms: _270  and  _271
REMARK  110  A    between atoms: _271  and  _272
REMARK  111  A    between atoms: _272  and  ZN_345
REMARK  112  A    between atoms: _274  and  _276
REMARK  113  A    between atoms: _276  and  _277
REMARK  114  A    between atoms: _276  and  _279
REMARK  115  A    between atoms: _279  and  _280
REMARK  116  A    between atoms: _282  and  _284
REMARK  117  A    between atoms: _284  and  _285
REMARK  118  A    between atoms: _289  and  _290
REMARK  119  A    between atoms: _295  and  _297
REMARK  120  A    between atoms: _297  and  _298
REMARK  121  A    between atoms: _297  and  _300
REMARK  122  A    between atoms: _300  and  _301
REMARK  123  A    between atoms: _306  and  _308
REMARK  124  A    between atoms: _308  and  _309
REMARK  125  A    between atoms: _308  and  _311
REMARK  126  A    between atoms: _311  and  _312
REMARK  127  A    between atoms: _312  and  _313
REMARK  128  A    between atoms: _313  and  _314
REMARK  129  A    between atoms: _314  and  _315
REMARK  130  A    between atoms: _319  and  _321
REMARK  131  A    between atoms: _321  and  _322
REMARK  132  A    between atoms: _321  and  _324
REMARK  133  A    between atoms: _326  and  _328
REMARK  134  A    between atoms: _328  and  _329
REMARK  135  A    between atoms: _332  and  _334
REMARK  136  A    between atoms: _334  and  _335
REMARK  137  A    between atoms: _337  and  _339
REMARK  138  A    between atoms: _339  and  _340
REMARK  139  A    between atoms: _339  and  _342
REMARK                            x       y       z     vdW  Elec       q    Type
REMARK                         _______ _______ _______ _____ _____    ______ ____
ROOT
ATOM      1  O   HOH     1      33.911  33.227  73.053  0.00  0.00    +0.000 OA
ENDROOT
TORSDOF 0
REMARK  Name = ../refined-set-2016/2eg7/2eg7_pocket.pdb
REMARK  139 active torsions:
REMARK  status: ('A' for Active; 'I' for Inactive)
REMARK    1  A    between atoms: _1  and  _3
REMARK    2  A    between atoms: _14  and  _17
REMARK    3  A    between atoms: _17  and  _18
REMARK    4  A    between atoms: _23  and  _24
REMARK    5  A    between atoms: _32  and  _34
REMARK    6  A    between atoms: _34  and  _35
REMARK    7  A    between atoms: _34  and  _37
REMARK    8  A    between atoms: _37  and  _38
REMARK    9  A    between atoms: _41  and  _43
REMARK   10  A    between atoms: _43  and  _44
REMARK   11  A    between atoms: _43  and  _46
REMARK   12  A    between atoms: _46  and  _47
REMARK   13  A    between atoms: _47  and  _48
REMARK   14  A    between atoms: _48  and  _49
REMARK   15  A    between atoms: _58  and  _60
REMARK   16  A    between atoms: _60  and  _61
REMARK   17  A    between atoms: _60  and  _63
REMARK   18  A    between atoms: _63  and  _64
REMARK   19  A    between atoms: _64  and  _65
REMARK   20  A    between atoms: _67  and  _69
REMARK   21  A    between atoms: _69  and  _70
REMARK   22  A    between atoms: _69  and  _72
REMARK   23  A    between atoms: _72  and  _73
REMARK   24  A    between atoms: _78  and  _80
REMARK   25  A    between atoms: _80  and  _81
REMARK   26  A    between atoms: _80  and  _83
REMARK   27  A    between atoms: _83  and  _84
REMARK   28  A    between atoms: _87  and  _89
REMARK   29  A    between atoms: _89  and  _90
REMARK   30  A    between atoms: _89  and  _96
REMARK   31  A    between atoms: _90  and  _91
REMARK   32  A    between atoms: _91  and  _92
REMARK   33  A    between atoms: _92  and  _93
REMARK   34  A    between atoms: _93  and  _94
REMARK   35  A    between atoms: _94  and  _98
REMARK   36  A    between atoms: _98  and  _99
REMARK   37  A    between atoms: _98  and  _100
REMARK   38  A    between atoms: _99  and  ZN_344
REMARK   39  A    between atoms: _100  and  ZN_345
REMARK   40  A    between atoms: _101  and  _103
REMARK   41  A    between atoms: _103  and  _104
REMARK   42  A    between atoms: _103  and  _106
REMARK   43  A    between atoms: _106  and  _107
REMARK   44  A    between atoms: _112  and  _113
REMARK   45  A    between atoms: _116  and  _117
REMARK   46  A    between atoms: _122  and  _124
REMARK   47  A    between atoms: _124  and  _125
REMARK   48  A    between atoms: _124  and  _127
REMARK   49  A    between atoms: _127  and  _128
REMARK   50  A    between atoms: _129  and  ZN_344
REMARK   51  A    between atoms: _133  and  _135
REMARK   52  A    between atoms: _135  and  _136
REMARK   53  A    between atoms: _138  and  _140
REMARK   54  A    between atoms: _140  and  _141
REMARK   55  A    between atoms: _140  and  _143
REMARK   56  A    between atoms: _143  and  _144
REMARK   57  A    between atoms: _144  and  _145
REMARK   58  A    between atoms: _148  and  _150
REMARK   59  A    between atoms: _150  and  _151
REMARK   60  A    between atoms: _150  and  _153
REMARK   61  A    between atoms: _153  and  _154
REMARK   62  A    between atoms: _154  and  _155
REMARK   63  A    between atoms: _158  and  _160
REMARK   64  A    between atoms: _160  and  _161
REMARK   65  A    between atoms: _160  and  _163
REMARK   66  A    between atoms: _163  and  _164
REMARK   67  A    between atoms: _168  and  ZN_344
REMARK   68  A    between atoms: _169  and  _171
REMARK   69  A    between atoms: _171  and  _172
REMARK   70  A    between atoms: _171  and  _174
REMARK   71  A    between atoms: _174  and  _175
REMARK   72  A    between atoms: _178  and  _180
REMARK   73  A    between atoms: _180  and  _181
REMARK   74  A    between atoms: _180  and  _183
REMARK   75  A    between atoms: _183  and  _184
REMARK   76  A    between atoms: _184  and  _185
REMARK   77  A    between atoms: _190  and  _192
REMARK   78  A    between atoms: _192  and  _193
REMARK   79  A    between atoms: _192  and  _195
REMARK   80  A    between atoms: _195  and  _196
REMARK   81  A    between atoms: _201  and  _203
REMARK   82  A    between atoms: _203  and  _204
REMARK   83  A    between atoms: _203  and  _206
REMARK   84  A    between atoms: _206  and  _207
REMARK   85  A    between atoms: _210  and  _212
REMARK   86  A    between atoms: _212  and  _213
REMARK   87  A    between atoms: _212  and  _215
REMARK   88  A    between atoms: _215  and  _216
REMARK   89  A    between atoms: _221  and  _222
REMARK   90  A    between atoms: _224  and  _226
REMARK   91  A    between atoms: _226  and  _227
REMARK   92  A    between atoms: _226  and  _229
REMARK   93  A    between atoms: _231  and  _233
REMARK   94  A    between atoms: _233  and  _234
REMARK   95  A    between atoms: _233  and  _236
REMARK   96  A    between atoms: _236  and  _237
REMARK   97  A    between atoms: _241  and  _242
REMARK   98  A    between atoms: _247  and  _249
REMARK   99  A    between atoms: _249  and  _250
REMARK  100  A    between atoms: _249  and  _252
REMARK  101  A    between atoms: _252  and  _253
REMARK  102  A    between atoms: _256  and  _258
REMARK  103  A    between atoms: _258  and  _259
REMARK  104  A    between atoms: _258  and  _261
REMARK  105  A    between atoms: _261  and  _262
REMARK  106  A    between atoms: _265  and  _267
REMARK  107  A    between atoms: _267  and  _268
REMARK  108  A    between atoms: _267  and  _270
REMARK  109  A    between atoms: _270  and  _271
REMARK  110  A    between atoms: _271  and  _272
REMARK  111  A    between atoms: _272  and  ZN_345
REMARK  112  A    between atoms: _274  and  _276
REMARK  113  A    between atoms: _276  and  _277
REMARK  114  A    between atoms: _276  and  _279
REMARK  115  A    between atoms: _279  and  _280
REMARK  116  A    between atoms: _282  and  _284
REMARK  117  A    between atoms: _284  and  _285
REMARK  118  A    between atoms: _289  and  _290
REMARK  119  A    between atoms: _295  and  _297
REMARK  120  A    between atoms: _297  and  _298
REMARK  121  A    between atoms: _297  and  _300
REMARK  122  A    between atoms: _300  and  _301
REMARK  123  A    between atoms: _306  and  _308
REMARK  124  A    between atoms: _308  and  _309
REMARK  125  A    between atoms: _308  and  _311
REMARK  126  A    between atoms: _311  and  _312
REMARK  127  A    between atoms: _312  and  _313
REMARK  128  A    between atoms: _313  and  _314
REMARK  129  A    between atoms: _314  and  _315
REMARK  130  A    between atoms: _319  and  _321
REMARK  131  A    between atoms: _321  and  _322
REMARK  132  A    between atoms: _321  and  _324
REMARK  133  A    between atoms: _326  and  _328
REMARK  134  A    between atoms: _328  and  _329
REMARK  135  A    between atoms: _332  and  _334
REMARK  136  A    between atoms: _334  and  _335
REMARK  137  A    between atoms: _337  and  _339
REMARK  138  A    between atoms: _339  and  _340
REMARK  139  A    between atoms: _339  and  _342
REMARK                            x       y       z     vdW  Elec       q    Type
REMARK                         _______ _______ _______ _____ _____    ______ ____
ROOT
ATOM      1  O   HOH     1      30.873  44.731  67.761  0.00  0.00    +0.000 OA
ENDROOT
TORSDOF 0
REMARK  Name = ../refined-set-2016/2eg7/2eg7_pocket.pdb
REMARK  139 active torsions:
REMARK  status: ('A' for Active; 'I' for Inactive)
REMARK    1  A    between atoms: _1  and  _3
REMARK    2  A    between atoms: _14  and  _17
REMARK    3  A    between atoms: _17  and  _18
REMARK    4  A    between atoms: _23  and  _24
REMARK    5  A    between atoms: _32  and  _34
REMARK    6  A    between atoms: _34  and  _35
REMARK    7  A    between atoms: _34  and  _37
REMARK    8  A    between atoms: _37  and  _38
REMARK    9  A    between atoms: _41  and  _43
REMARK   10  A    between atoms: _43  and  _44
REMARK   11  A    between atoms: _43  and  _46
REMARK   12  A    between atoms: _46  and  _47
REMARK   13  A    between atoms: _47  and  _48
REMARK   14  A    between atoms: _48  and  _49
REMARK   15  A    between atoms: _58  and  _60
REMARK   16  A    between atoms: _60  and  _61
REMARK   17  A    between atoms: _60  and  _63
REMARK   18  A    between atoms: _63  and  _64
REMARK   19  A    between atoms: _64  and  _65
REMARK   20  A    between atoms: _67  and  _69
REMARK   21  A    between atoms: _69  and  _70
REMARK   22  A    between atoms: _69  and  _72
REMARK   23  A    between atoms: _72  and  _73
REMARK   24  A    between atoms: _78  and  _80
REMARK   25  A    between atoms: _80  and  _81
REMARK   26  A    between atoms: _80  and  _83
REMARK   27  A    between atoms: _83  and  _84
REMARK   28  A    between atoms: _87  and  _89
REMARK   29  A    between atoms: _89  and  _90
REMARK   30  A    between atoms: _89  and  _96
REMARK   31  A    between atoms: _90  and  _91
REMARK   32  A    between atoms: _91  and  _92
REMARK   33  A    between atoms: _92  and  _93
REMARK   34  A    between atoms: _93  and  _94
REMARK   35  A    between atoms: _94  and  _98
REMARK   36  A    between atoms: _98  and  _99
REMARK   37  A    between atoms: _98  and  _100
REMARK   38  A    between atoms: _99  and  ZN_344
REMARK   39  A    between atoms: _100  and  ZN_345
REMARK   40  A    between atoms: _101  and  _103
REMARK   41  A    between atoms: _103  and  _104
REMARK   42  A    between atoms: _103  and  _106
REMARK   43  A    between atoms: _106  and  _107
REMARK   44  A    between atoms: _112  and  _113
REMARK   45  A    between atoms: _116  and  _117
REMARK   46  A    between atoms: _122  and  _124
REMARK   47  A    between atoms: _124  and  _125
REMARK   48  A    between atoms: _124  and  _127
REMARK   49  A    between atoms: _127  and  _128
REMARK   50  A    between atoms: _129  and  ZN_344
REMARK   51  A    between atoms: _133  and  _135
REMARK   52  A    between atoms: _135  and  _136
REMARK   53  A    between atoms: _138  and  _140
REMARK   54  A    between atoms: _140  and  _141
REMARK   55  A    between atoms: _140  and  _143
REMARK   56  A    between atoms: _143  and  _144
REMARK   57  A    between atoms: _144  and  _145
REMARK   58  A    between atoms: _148  and  _150
REMARK   59  A    between atoms: _150  and  _151
REMARK   60  A    between atoms: _150  and  _153
REMARK   61  A    between atoms: _153  and  _154
REMARK   62  A    between atoms: _154  and  _155
REMARK   63  A    between atoms: _158  and  _160
REMARK   64  A    between atoms: _160  and  _161
REMARK   65  A    between atoms: _160  and  _163
REMARK   66  A    between atoms: _163  and  _164
REMARK   67  A    between atoms: _168  and  ZN_344
REMARK   68  A    between atoms: _169  and  _171
REMARK   69  A    between atoms: _171  and  _172
REMARK   70  A    between atoms: _171  and  _174
REMARK   71  A    between atoms: _174  and  _175
REMARK   72  A    between atoms: _178  and  _180
REMARK   73  A    between atoms: _180  and  _181
REMARK   74  A    between atoms: _180  and  _183
REMARK   75  A    between atoms: _183  and  _184
REMARK   76  A    between atoms: _184  and  _185
REMARK   77  A    between atoms: _190  and  _192
REMARK   78  A    between atoms: _192  and  _193
REMARK   79  A    between atoms: _192  and  _195
REMARK   80  A    between atoms: _195  and  _196
REMARK   81  A    between atoms: _201  and  _203
REMARK   82  A    between atoms: _203  and  _204
REMARK   83  A    between atoms: _203  and  _206
REMARK   84  A    between atoms: _206  and  _207
REMARK   85  A    between atoms: _210  and  _212
REMARK   86  A    between atoms: _212  and  _213
REMARK   87  A    between atoms: _212  and  _215
REMARK   88  A    between atoms: _215  and  _216
REMARK   89  A    between atoms: _221  and  _222
REMARK   90  A    between atoms: _224  and  _226
REMARK   91  A    between atoms: _226  and  _227
REMARK   92  A    between atoms: _226  and  _229
REMARK   93  A    between atoms: _231  and  _233
REMARK   94  A    between atoms: _233  and  _234
REMARK   95  A    between atoms: _233  and  _236
REMARK   96  A    between atoms: _236  and  _237
REMARK   97  A    between atoms: _241  and  _242
REMARK   98  A    between atoms: _247  and  _249
REMARK   99  A    between atoms: _249  and  _250
REMARK  100  A    between atoms: _249  and  _252
REMARK  101  A    between atoms: _252  and  _253
REMARK  102  A    between atoms: _256  and  _258
REMARK  103  A    between atoms: _258  and  _259
REMARK  104  A    between atoms: _258  and  _261
REMARK  105  A    between atoms: _261  and  _262
REMARK  106  A    between atoms: _265  and  _267
REMARK  107  A    between atoms: _267  and  _268
REMARK  108  A    between atoms: _267  and  _270
REMARK  109  A    between atoms: _270  and  _271
REMARK  110  A    between atoms: _271  and  _272
REMARK  111  A    between atoms: _272  and  ZN_345
REMARK  112  A    between atoms: _274  and  _276
REMARK  113  A    between atoms: _276  and  _277
REMARK  114  A    between atoms: _276  and  _279
REMARK  115  A    between atoms: _279  and  _280
REMARK  116  A    between atoms: _282  and  _284
REMARK  117  A    between atoms: _284  and  _285
REMARK  118  A    between atoms: _289  and  _290
REMARK  119  A    between atoms: _295  and  _297
REMARK  120  A    between atoms: _297  and  _298
REMARK  121  A    between atoms: _297  and  _300
REMARK  122  A    between atoms: _300  and  _301
REMARK  123  A    between atoms: _306  and  _308
REMARK  124  A    between atoms: _308  and  _309
REMARK  125  A    between atoms: _308  and  _311
REMARK  126  A    between atoms: _311  and  _312
REMARK  127  A    between atoms: _312  and  _313
REMARK  128  A    between atoms: _313  and  _314
REMARK  129  A    between atoms: _314  and  _315
REMARK  130  A    between atoms: _319  and  _321
REMARK  131  A    between atoms: _321  and  _322
REMARK  132  A    between atoms: _321  and  _324
REMARK  133  A    between atoms: _326  and  _328
REMARK  134  A    between atoms: _328  and  _329
REMARK  135  A    between atoms: _332  and  _334
REMARK  136  A    between atoms: _334  and  _335
REMARK  137  A    between atoms: _337  and  _339
REMARK  138  A    between atoms: _339  and  _340
REMARK  139  A    between atoms: _339  and  _342
REMARK                            x       y       z     vdW  Elec       q    Type
REMARK                         _______ _______ _______ _____ _____    ______ ____
ROOT
ATOM      1  O   HOH     1      22.786  31.195  72.970  0.00  0.00    +0.000 OA
ENDROOT
TORSDOF 0
REMARK  Name = ../refined-set-2016/2eg7/2eg7_pocket.pdb
REMARK  139 active torsions:
REMARK  status: ('A' for Active; 'I' for Inactive)
REMARK    1  A    between atoms: _1  and  _3
REMARK    2  A    between atoms: _14  and  _17
REMARK    3  A    between atoms: _17  and  _18
REMARK    4  A    between atoms: _23  and  _24
REMARK    5  A    between atoms: _32  and  _34
REMARK    6  A    between atoms: _34  and  _35
REMARK    7  A    between atoms: _34  and  _37
REMARK    8  A    between atoms: _37  and  _38
REMARK    9  A    between atoms: _41  and  _43
REMARK   10  A    between atoms: _43  and  _44
REMARK   11  A    between atoms: _43  and  _46
REMARK   12  A    between atoms: _46  and  _47
REMARK   13  A    between atoms: _47  and  _48
REMARK   14  A    between atoms: _48  and  _49
REMARK   15  A    between atoms: _58  and  _60
REMARK   16  A    between atoms: _60  and  _61
REMARK   17  A    between atoms: _60  and  _63
REMARK   18  A    between atoms: _63  and  _64
REMARK   19  A    between atoms: _64  and  _65
REMARK   20  A    between atoms: _67  and  _69
REMARK   21  A    between atoms: _69  and  _70
REMARK   22  A    between atoms: _69  and  _72
REMARK   23  A    between atoms: _72  and  _73
REMARK   24  A    between atoms: _78  and  _80
REMARK   25  A    between atoms: _80  and  _81
REMARK   26  A    between atoms: _80  and  _83
REMARK   27  A    between atoms: _83  and  _84
REMARK   28  A    between atoms: _87  and  _89
REMARK   29  A    between atoms: _89  and  _90
REMARK   30  A    between atoms: _89  and  _96
REMARK   31  A    between atoms: _90  and  _91
REMARK   32  A    between atoms: _91  and  _92
REMARK   33  A    between atoms: _92  and  _93
REMARK   34  A    between atoms: _93  and  _94
REMARK   35  A    between atoms: _94  and  _98
REMARK   36  A    between atoms: _98  and  _99
REMARK   37  A    between atoms: _98  and  _100
REMARK   38  A    between atoms: _99  and  ZN_344
REMARK   39  A    between atoms: _100  and  ZN_345
REMARK   40  A    between atoms: _101  and  _103
REMARK   41  A    between atoms: _103  and  _104
REMARK   42  A    between atoms: _103  and  _106
REMARK   43  A    between atoms: _106  and  _107
REMARK   44  A    between atoms: _112  and  _113
REMARK   45  A    between atoms: _116  and  _117
REMARK   46  A    between atoms: _122  and  _124
REMARK   47  A    between atoms: _124  and  _125
REMARK   48  A    between atoms: _124  and  _127
REMARK   49  A    between atoms: _127  and  _128
REMARK   50  A    between atoms: _129  and  ZN_344
REMARK   51  A    between atoms: _133  and  _135
REMARK   52  A    between atoms: _135  and  _136
REMARK   53  A    between atoms: _138  and  _140
REMARK   54  A    between atoms: _140  and  _141
REMARK   55  A    between atoms: _140  and  _143
REMARK   56  A    between atoms: _143  and  _144
REMARK   57  A    between atoms: _144  and  _145
REMARK   58  A    between atoms: _148  and  _150
REMARK   59  A    between atoms: _150  and  _151
REMARK   60  A    between atoms: _150  and  _153
REMARK   61  A    between atoms: _153  and  _154
REMARK   62  A    between atoms: _154  and  _155
REMARK   63  A    between atoms: _158  and  _160
REMARK   64  A    between atoms: _160  and  _161
REMARK   65  A    between atoms: _160  and  _163
REMARK   66  A    between atoms: _163  and  _164
REMARK   67  A    between atoms: _168  and  ZN_344
REMARK   68  A    between atoms: _169  and  _171
REMARK   69  A    between atoms: _171  and  _172
REMARK   70  A    between atoms: _171  and  _174
REMARK   71  A    between atoms: _174  and  _175
REMARK   72  A    between atoms: _178  and  _180
REMARK   73  A    between atoms: _180  and  _181
REMARK   74  A    between atoms: _180  and  _183
REMARK   75  A    between atoms: _183  and  _184
REMARK   76  A    between atoms: _184  and  _185
REMARK   77  A    between atoms: _190  and  _192
REMARK   78  A    between atoms: _192  and  _193
REMARK   79  A    between atoms: _192  and  _195
REMARK   80  A    between atoms: _195  and  _196
REMARK   81  A    between atoms: _201  and  _203
REMARK   82  A    between atoms: _203  and  _204
REMARK   83  A    between atoms: _203  and  _206
REMARK   84  A    between atoms: _206  and  _207
REMARK   85  A    between atoms: _210  and  _212
REMARK   86  A    between atoms: _212  and  _213
REMARK   87  A    between atoms: _212  and  _215
REMARK   88  A    between atoms: _215  and  _216
REMARK   89  A    between atoms: _221  and  _222
REMARK   90  A    between atoms: _224  and  _226
REMARK   91  A    between atoms: _226  and  _227
REMARK   92  A    between atoms: _226  and  _229
REMARK   93  A    between atoms: _231  and  _233
REMARK   94  A    between atoms: _233  and  _234
REMARK   95  A    between atoms: _233  and  _236
REMARK   96  A    between atoms: _236  and  _237
REMARK   97  A    between atoms: _241  and  _242
REMARK   98  A    between atoms: _247  and  _249
REMARK   99  A    between atoms: _249  and  _250
REMARK  100  A    between atoms: _249  and  _252
REMARK  101  A    between atoms: _252  and  _253
REMARK  102  A    between atoms: _256  and  _258
REMARK  103  A    between atoms: _258  and  _259
REMARK  104  A    between atoms: _258  and  _261
REMARK  105  A    between atoms: _261  and  _262
REMARK  106  A    between atoms: _265  and  _267
REMARK  107  A    between atoms: _267  and  _268
REMARK  108  A    between atoms: _267  and  _270
REMARK  109  A    between atoms: _270  and  _271
REMARK  110  A    between atoms: _271  and  _272
REMARK  111  A    between atoms: _272  and  ZN_345
REMARK  112  A    between atoms: _274  and  _276
REMARK  113  A    between atoms: _276  and  _277
REMARK  114  A    between atoms: _276  and  _279
REMARK  115  A    between atoms: _279  and  _280
REMARK  116  A    between atoms: _282  and  _284
REMARK  117  A    between atoms: _284  and  _285
REMARK  118  A    between atoms: _289  and  _290
REMARK  119  A    between atoms: _295  and  _297
REMARK  120  A    between atoms: _297  and  _298
REMARK  121  A    between atoms: _297  and  _300
REMARK  122  A    between atoms: _300  and  _301
REMARK  123  A    between atoms: _306  and  _308
REMARK  124  A    between atoms: _308  and  _309
REMARK  125  A    between atoms: _308  and  _311
REMARK  126  A    between atoms: _311  and  _312
REMARK  127  A    between atoms: _312  and  _313
REMARK  128  A    between atoms: _313  and  _314
REMARK  129  A    between atoms: _314  and  _315
REMARK  130  A    between atoms: _319  and  _321
REMARK  131  A    between atoms: _321  and  _322
REMARK  132  A    between atoms: _321  and  _324
REMARK  133  A    between atoms: _326  and  _328
REMARK  134  A    between atoms: _328  and  _329
REMARK  135  A    between atoms: _332  and  _334
REMARK  136  A    between atoms: _334  and  _335
REMARK  137  A    between atoms: _337  and  _339
REMARK  138  A    between atoms: _339  and  _340
REMARK  139  A    between atoms: _339  and  _342
REMARK                            x       y       z     vdW  Elec       q    Type
REMARK                         _______ _______ _______ _____ _____    ______ ____
ROOT
ATOM      1  O   HOH     1      28.644  44.244  68.998  0.00  0.00    +0.000 OA
ENDROOT
TORSDOF 0
REMARK  Name = ../refined-set-2016/2eg7/2eg7_pocket.pdb
REMARK  139 active torsions:
REMARK  status: ('A' for Active; 'I' for Inactive)
REMARK    1  A    between atoms: _1  and  _3
REMARK    2  A    between atoms: _14  and  _17
REMARK    3  A    between atoms: _17  and  _18
REMARK    4  A    between atoms: _23  and  _24
REMARK    5  A    between atoms: _32  and  _34
REMARK    6  A    between atoms: _34  and  _35
REMARK    7  A    between atoms: _34  and  _37
REMARK    8  A    between atoms: _37  and  _38
REMARK    9  A    between atoms: _41  and  _43
REMARK   10  A    between atoms: _43  and  _44
REMARK   11  A    between atoms: _43  and  _46
REMARK   12  A    between atoms: _46  and  _47
REMARK   13  A    between atoms: _47  and  _48
REMARK   14  A    between atoms: _48  and  _49
REMARK   15  A    between atoms: _58  and  _60
REMARK   16  A    between atoms: _60  and  _61
REMARK   17  A    between atoms: _60  and  _63
REMARK   18  A    between atoms: _63  and  _64
REMARK   19  A    between atoms: _64  and  _65
REMARK   20  A    between atoms: _67  and  _69
REMARK   21  A    between atoms: _69  and  _70
REMARK   22  A    between atoms: _69  and  _72
REMARK   23  A    between atoms: _72  and  _73
REMARK   24  A    between atoms: _78  and  _80
REMARK   25  A    between atoms: _80  and  _81
REMARK   26  A    between atoms: _80  and  _83
REMARK   27  A    between atoms: _83  and  _84
REMARK   28  A    between atoms: _87  and  _89
REMARK   29  A    between atoms: _89  and  _90
REMARK   30  A    between atoms: _89  and  _96
REMARK   31  A    between atoms: _90  and  _91
REMARK   32  A    between atoms: _91  and  _92
REMARK   33  A    between atoms: _92  and  _93
REMARK   34  A    between atoms: _93  and  _94
REMARK   35  A    between atoms: _94  and  _98
REMARK   36  A    between atoms: _98  and  _99
REMARK   37  A    between atoms: _98  and  _100
REMARK   38  A    between atoms: _99  and  ZN_344
REMARK   39  A    between atoms: _100  and  ZN_345
REMARK   40  A    between atoms: _101  and  _103
REMARK   41  A    between atoms: _103  and  _104
REMARK   42  A    between atoms: _103  and  _106
REMARK   43  A    between atoms: _106  and  _107
REMARK   44  A    between atoms: _112  and  _113
REMARK   45  A    between atoms: _116  and  _117
REMARK   46  A    between atoms: _122  and  _124
REMARK   47  A    between atoms: _124  and  _125
REMARK   48  A    between atoms: _124  and  _127
REMARK   49  A    between atoms: _127  and  _128
REMARK   50  A    between atoms: _129  and  ZN_344
REMARK   51  A    between atoms: _133  and  _135
REMARK   52  A    between atoms: _135  and  _136
REMARK   53  A    between atoms: _138  and  _140
REMARK   54  A    between atoms: _140  and  _141
REMARK   55  A    between atoms: _140  and  _143
REMARK   56  A    between atoms: _143  and  _144
REMARK   57  A    between atoms: _144  and  _145
REMARK   58  A    between atoms: _148  and  _150
REMARK   59  A    between atoms: _150  and  _151
REMARK   60  A    between atoms: _150  and  _153
REMARK   61  A    between atoms: _153  and  _154
REMARK   62  A    between atoms: _154  and  _155
REMARK   63  A    between atoms: _158  and  _160
REMARK   64  A    between atoms: _160  and  _161
REMARK   65  A    between atoms: _160  and  _163
REMARK   66  A    between atoms: _163  and  _164
REMARK   67  A    between atoms: _168  and  ZN_344
REMARK   68  A    between atoms: _169  and  _171
REMARK   69  A    between atoms: _171  and  _172
REMARK   70  A    between atoms: _171  and  _174
REMARK   71  A    between atoms: _174  and  _175
REMARK   72  A    between atoms: _178  and  _180
REMARK   73  A    between atoms: _180  and  _181
REMARK   74  A    between atoms: _180  and  _183
REMARK   75  A    between atoms: _183  and  _184
REMARK   76  A    between atoms: _184  and  _185
REMARK   77  A    between atoms: _190  and  _192
REMARK   78  A    between atoms: _192  and  _193
REMARK   79  A    between atoms: _192  and  _195
REMARK   80  A    between atoms: _195  and  _196
REMARK   81  A    between atoms: _201  and  _203
REMARK   82  A    between atoms: _203  and  _204
REMARK   83  A    between atoms: _203  and  _206
REMARK   84  A    between atoms: _206  and  _207
REMARK   85  A    between atoms: _210  and  _212
REMARK   86  A    between atoms: _212  and  _213
REMARK   87  A    between atoms: _212  and  _215
REMARK   88  A    between atoms: _215  and  _216
REMARK   89  A    between atoms: _221  and  _222
REMARK   90  A    between atoms: _224  and  _226
REMARK   91  A    between atoms: _226  and  _227
REMARK   92  A    between atoms: _226  and  _229
REMARK   93  A    between atoms: _231  and  _233
REMARK   94  A    between atoms: _233  and  _234
REMARK   95  A    between atoms: _233  and  _236
REMARK   96  A    between atoms: _236  and  _237
REMARK   97  A    between atoms: _241  and  _242
REMARK   98  A    between atoms: _247  and  _249
REMARK   99  A    between atoms: _249  and  _250
REMARK  100  A    between atoms: _249  and  _252
REMARK  101  A    between atoms: _252  and  _253
REMARK  102  A    between atoms: _256  and  _258
REMARK  103  A    between atoms: _258  and  _259
REMARK  104  A    between atoms: _258  and  _261
REMARK  105  A    between atoms: _261  and  _262
REMARK  106  A    between atoms: _265  and  _267
REMARK  107  A    between atoms: _267  and  _268
REMARK  108  A    between atoms: _267  and  _270
REMARK  109  A    between atoms: _270  and  _271
REMARK  110  A    between atoms: _271  and  _272
REMARK  111  A    between atoms: _272  and  ZN_345
REMARK  112  A    between atoms: _274  and  _276
REMARK  113  A    between atoms: _276  and  _277
REMARK  114  A    between atoms: _276  and  _279
REMARK  115  A    between atoms: _279  and  _280
REMARK  116  A    between atoms: _282  and  _284
REMARK  117  A    between atoms: _284  and  _285
REMARK  118  A    between atoms: _289  and  _290
REMARK  119  A    between atoms: _295  and  _297
REMARK  120  A    between atoms: _297  and  _298
REMARK  121  A    between atoms: _297  and  _300
REMARK  122  A    between atoms: _300  and  _301
REMARK  123  A    between atoms: _306  and  _308
REMARK  124  A    between atoms: _308  and  _309
REMARK  125  A    between atoms: _308  and  _311
REMARK  126  A    between atoms: _311  and  _312
REMARK  127  A    between atoms: _312  and  _313
REMARK  128  A    between atoms: _313  and  _314
REMARK  129  A    between atoms: _314  and  _315
REMARK  130  A    between atoms: _319  and  _321
REMARK  131  A    between atoms: _321  and  _322
REMARK  132  A    between atoms: _321  and  _324
REMARK  133  A    between atoms: _326  and  _328
REMARK  134  A    between atoms: _328  and  _329
REMARK  135  A    between atoms: _332  and  _334
REMARK  136  A    between atoms: _334  and  _335
REMARK  137  A    between atoms: _337  and  _339
REMARK  138  A    between atoms: _339  and  _340
REMARK  139  A    between atoms: _339  and  _342
REMARK                            x       y       z     vdW  Elec       q    Type
REMARK                         _______ _______ _______ _____ _____    ______ ____
ROOT
ATOM      1  O   HOH     1      23.735  38.315  76.665  0.00  0.00    +0.000 OA
ENDROOT
TORSDOF 0
REMARK  Name = ../refined-set-2016/2eg7/2eg7_pocket.pdb
REMARK  139 active torsions:
REMARK  status: ('A' for Active; 'I' for Inactive)
REMARK    1  A    between atoms: _1  and  _3
REMARK    2  A    between atoms: _14  and  _17
REMARK    3  A    between atoms: _17  and  _18
REMARK    4  A    between atoms: _23  and  _24
REMARK    5  A    between atoms: _32  and  _34
REMARK    6  A    between atoms: _34  and  _35
REMARK    7  A    between atoms: _34  and  _37
REMARK    8  A    between atoms: _37  and  _38
REMARK    9  A    between atoms: _41  and  _43
REMARK   10  A    between atoms: _43  and  _44
REMARK   11  A    between atoms: _43  and  _46
REMARK   12  A    between atoms: _46  and  _47
REMARK   13  A    between atoms: _47  and  _48
REMARK   14  A    between atoms: _48  and  _49
REMARK   15  A    between atoms: _58  and  _60
REMARK   16  A    between atoms: _60  and  _61
REMARK   17  A    between atoms: _60  and  _63
REMARK   18  A    between atoms: _63  and  _64
REMARK   19  A    between atoms: _64  and  _65
REMARK   20  A    between atoms: _67  and  _69
REMARK   21  A    between atoms: _69  and  _70
REMARK   22  A    between atoms: _69  and  _72
REMARK   23  A    between atoms: _72  and  _73
REMARK   24  A    between atoms: _78  and  _80
REMARK   25  A    between atoms: _80  and  _81
REMARK   26  A    between atoms: _80  and  _83
REMARK   27  A    between atoms: _83  and  _84
REMARK   28  A    between atoms: _87  and  _89
REMARK   29  A    between atoms: _89  and  _90
REMARK   30  A    between atoms: _89  and  _96
REMARK   31  A    between atoms: _90  and  _91
REMARK   32  A    between atoms: _91  and  _92
REMARK   33  A    between atoms: _92  and  _93
REMARK   34  A    between atoms: _93  and  _94
REMARK   35  A    between atoms: _94  and  _98
REMARK   36  A    between atoms: _98  and  _99
REMARK   37  A    between atoms: _98  and  _100
REMARK   38  A    between atoms: _99  and  ZN_344
REMARK   39  A    between atoms: _100  and  ZN_345
REMARK   40  A    between atoms: _101  and  _103
REMARK   41  A    between atoms: _103  and  _104
REMARK   42  A    between atoms: _103  and  _106
REMARK   43  A    between atoms: _106  and  _107
REMARK   44  A    between atoms: _112  and  _113
REMARK   45  A    between atoms: _116  and  _117
REMARK   46  A    between atoms: _122  and  _124
REMARK   47  A    between atoms: _124  and  _125
REMARK   48  A    between atoms: _124  and  _127
REMARK   49  A    between atoms: _127  and  _128
REMARK   50  A    between atoms: _129  and  ZN_344
REMARK   51  A    between atoms: _133  and  _135
REMARK   52  A    between atoms: _135  and  _136
REMARK   53  A    between atoms: _138  and  _140
REMARK   54  A    between atoms: _140  and  _141
REMARK   55  A    between atoms: _140  and  _143
REMARK   56  A    between atoms: _143  and  _144
REMARK   57  A    between atoms: _144  and  _145
REMARK   58  A    between atoms: _148  and  _150
REMARK   59  A    between atoms: _150  and  _151
REMARK   60  A    between atoms: _150  and  _153
REMARK   61  A    between atoms: _153  and  _154
REMARK   62  A    between atoms: _154  and  _155
REMARK   63  A    between atoms: _158  and  _160
REMARK   64  A    between atoms: _160  and  _161
REMARK   65  A    between atoms: _160  and  _163
REMARK   66  A    between atoms: _163  and  _164
REMARK   67  A    between atoms: _168  and  ZN_344
REMARK   68  A    between atoms: _169  and  _171
REMARK   69  A    between atoms: _171  and  _172
REMARK   70  A    between atoms: _171  and  _174
REMARK   71  A    between atoms: _174  and  _175
REMARK   72  A    between atoms: _178  and  _180
REMARK   73  A    between atoms: _180  and  _181
REMARK   74  A    between atoms: _180  and  _183
REMARK   75  A    between atoms: _183  and  _184
REMARK   76  A    between atoms: _184  and  _185
REMARK   77  A    between atoms: _190  and  _192
REMARK   78  A    between atoms: _192  and  _193
REMARK   79  A    between atoms: _192  and  _195
REMARK   80  A    between atoms: _195  and  _196
REMARK   81  A    between atoms: _201  and  _203
REMARK   82  A    between atoms: _203  and  _204
REMARK   83  A    between atoms: _203  and  _206
REMARK   84  A    between atoms: _206  and  _207
REMARK   85  A    between atoms: _210  and  _212
REMARK   86  A    between atoms: _212  and  _213
REMARK   87  A    between atoms: _212  and  _215
REMARK   88  A    between atoms: _215  and  _216
REMARK   89  A    between atoms: _221  and  _222
REMARK   90  A    between atoms: _224  and  _226
REMARK   91  A    between atoms: _226  and  _227
REMARK   92  A    between atoms: _226  and  _229
REMARK   93  A    between atoms: _231  and  _233
REMARK   94  A    between atoms: _233  and  _234
REMARK   95  A    between atoms: _233  and  _236
REMARK   96  A    between atoms: _236  and  _237
REMARK   97  A    between atoms: _241  and  _242
REMARK   98  A    between atoms: _247  and  _249
REMARK   99  A    between atoms: _249  and  _250
REMARK  100  A    between atoms: _249  and  _252
REMARK  101  A    between atoms: _252  and  _253
REMARK  102  A    between atoms: _256  and  _258
REMARK  103  A    between atoms: _258  and  _259
REMARK  104  A    between atoms: _258  and  _261
REMARK  105  A    between atoms: _261  and  _262
REMARK  106  A    between atoms: _265  and  _267
REMARK  107  A    between atoms: _267  and  _268
REMARK  108  A    between atoms: _267  and  _270
REMARK  109  A    between atoms: _270  and  _271
REMARK  110  A    between atoms: _271  and  _272
REMARK  111  A    between atoms: _272  and  ZN_345
REMARK  112  A    between atoms: _274  and  _276
REMARK  113  A    between atoms: _276  and  _277
REMARK  114  A    between atoms: _276  and  _279
REMARK  115  A    between atoms: _279  and  _280
REMARK  116  A    between atoms: _282  and  _284
REMARK  117  A    between atoms: _284  and  _285
REMARK  118  A    between atoms: _289  and  _290
REMARK  119  A    between atoms: _295  and  _297
REMARK  120  A    between atoms: _297  and  _298
REMARK  121  A    between atoms: _297  and  _300
REMARK  122  A    between atoms: _300  and  _301
REMARK  123  A    between atoms: _306  and  _308
REMARK  124  A    between atoms: _308  and  _309
REMARK  125  A    between atoms: _308  and  _311
REMARK  126  A    between atoms: _311  and  _312
REMARK  127  A    between atoms: _312  and  _313
REMARK  128  A    between atoms: _313  and  _314
REMARK  129  A    between atoms: _314  and  _315
REMARK  130  A    between atoms: _319  and  _321
REMARK  131  A    between atoms: _321  and  _322
REMARK  132  A    between atoms: _321  and  _324
REMARK  133  A    between atoms: _326  and  _328
REMARK  134  A    between atoms: _328  and  _329
REMARK  135  A    between atoms: _332  and  _334
REMARK  136  A    between atoms: _334  and  _335
REMARK  137  A    between atoms: _337  and  _339
REMARK  138  A    between atoms: _339  and  _340
REMARK  139  A    between atoms: _339  and  _342
REMARK                            x       y       z     vdW  Elec       q    Type
REMARK                         _______ _______ _______ _____ _____    ______ ____
ROOT
ATOM      1  O   HOH     1      26.046  36.423  76.289  0.00  0.00    +0.000 OA
ENDROOT
TORSDOF 0
REMARK  Name = ../refined-set-2016/2eg7/2eg7_pocket.pdb
REMARK  139 active torsions:
REMARK  status: ('A' for Active; 'I' for Inactive)
REMARK    1  A    between atoms: _1  and  _3
REMARK    2  A    between atoms: _14  and  _17
REMARK    3  A    between atoms: _17  and  _18
REMARK    4  A    between atoms: _23  and  _24
REMARK    5  A    between atoms: _32  and  _34
REMARK    6  A    between atoms: _34  and  _35
REMARK    7  A    between atoms: _34  and  _37
REMARK    8  A    between atoms: _37  and  _38
REMARK    9  A    between atoms: _41  and  _43
REMARK   10  A    between atoms: _43  and  _44
REMARK   11  A    between atoms: _43  and  _46
REMARK   12  A    between atoms: _46  and  _47
REMARK   13  A    between atoms: _47  and  _48
REMARK   14  A    between atoms: _48  and  _49
REMARK   15  A    between atoms: _58  and  _60
REMARK   16  A    between atoms: _60  and  _61
REMARK   17  A    between atoms: _60  and  _63
REMARK   18  A    between atoms: _63  and  _64
REMARK   19  A    between atoms: _64  and  _65
REMARK   20  A    between atoms: _67  and  _69
REMARK   21  A    between atoms: _69  and  _70
REMARK   22  A    between atoms: _69  and  _72
REMARK   23  A    between atoms: _72  and  _73
REMARK   24  A    between atoms: _78  and  _80
REMARK   25  A    between atoms: _80  and  _81
REMARK   26  A    between atoms: _80  and  _83
REMARK   27  A    between atoms: _83  and  _84
REMARK   28  A    between atoms: _87  and  _89
REMARK   29  A    between atoms: _89  and  _90
REMARK   30  A    between atoms: _89  and  _96
REMARK   31  A    between atoms: _90  and  _91
REMARK   32  A    between atoms: _91  and  _92
REMARK   33  A    between atoms: _92  and  _93
REMARK   34  A    between atoms: _93  and  _94
REMARK   35  A    between atoms: _94  and  _98
REMARK   36  A    between atoms: _98  and  _99
REMARK   37  A    between atoms: _98  and  _100
REMARK   38  A    between atoms: _99  and  ZN_344
REMARK   39  A    between atoms: _100  and  ZN_345
REMARK   40  A    between atoms: _101  and  _103
REMARK   41  A    between atoms: _103  and  _104
REMARK   42  A    between atoms: _103  and  _106
REMARK   43  A    between atoms: _106  and  _107
REMARK   44  A    between atoms: _112  and  _113
REMARK   45  A    between atoms: _116  and  _117
REMARK   46  A    between atoms: _122  and  _124
REMARK   47  A    between atoms: _124  and  _125
REMARK   48  A    between atoms: _124  and  _127
REMARK   49  A    between atoms: _127  and  _128
REMARK   50  A    between atoms: _129  and  ZN_344
REMARK   51  A    between atoms: _133  and  _135
REMARK   52  A    between atoms: _135  and  _136
REMARK   53  A    between atoms: _138  and  _140
REMARK   54  A    between atoms: _140  and  _141
REMARK   55  A    between atoms: _140  and  _143
REMARK   56  A    between atoms: _143  and  _144
REMARK   57  A    between atoms: _144  and  _145
REMARK   58  A    between atoms: _148  and  _150
REMARK   59  A    between atoms: _150  and  _151
REMARK   60  A    between atoms: _150  and  _153
REMARK   61  A    between atoms: _153  and  _154
REMARK   62  A    between atoms: _154  and  _155
REMARK   63  A    between atoms: _158  and  _160
REMARK   64  A    between atoms: _160  and  _161
REMARK   65  A    between atoms: _160  and  _163
REMARK   66  A    between atoms: _163  and  _164
REMARK   67  A    between atoms: _168  and  ZN_344
REMARK   68  A    between atoms: _169  and  _171
REMARK   69  A    between atoms: _171  and  _172
REMARK   70  A    between atoms: _171  and  _174
REMARK   71  A    between atoms: _174  and  _175
REMARK   72  A    between atoms: _178  and  _180
REMARK   73  A    between atoms: _180  and  _181
REMARK   74  A    between atoms: _180  and  _183
REMARK   75  A    between atoms: _183  and  _184
REMARK   76  A    between atoms: _184  and  _185
REMARK   77  A    between atoms: _190  and  _192
REMARK   78  A    between atoms: _192  and  _193
REMARK   79  A    between atoms: _192  and  _195
REMARK   80  A    between atoms: _195  and  _196
REMARK   81  A    between atoms: _201  and  _203
REMARK   82  A    between atoms: _203  and  _204
REMARK   83  A    between atoms: _203  and  _206
REMARK   84  A    between atoms: _206  and  _207
REMARK   85  A    between atoms: _210  and  _212
REMARK   86  A    between atoms: _212  and  _213
REMARK   87  A    between atoms: _212  and  _215
REMARK   88  A    between atoms: _215  and  _216
REMARK   89  A    between atoms: _221  and  _222
REMARK   90  A    between atoms: _224  and  _226
REMARK   91  A    between atoms: _226  and  _227
REMARK   92  A    between atoms: _226  and  _229
REMARK   93  A    between atoms: _231  and  _233
REMARK   94  A    between atoms: _233  and  _234
REMARK   95  A    between atoms: _233  and  _236
REMARK   96  A    between atoms: _236  and  _237
REMARK   97  A    between atoms: _241  and  _242
REMARK   98  A    between atoms: _247  and  _249
REMARK   99  A    between atoms: _249  and  _250
REMARK  100  A    between atoms: _249  and  _252
REMARK  101  A    between atoms: _252  and  _253
REMARK  102  A    between atoms: _256  and  _258
REMARK  103  A    between atoms: _258  and  _259
REMARK  104  A    between atoms: _258  and  _261
REMARK  105  A    between atoms: _261  and  _262
REMARK  106  A    between atoms: _265  and  _267
REMARK  107  A    between atoms: _267  and  _268
REMARK  108  A    between atoms: _267  and  _270
REMARK  109  A    between atoms: _270  and  _271
REMARK  110  A    between atoms: _271  and  _272
REMARK  111  A    between atoms: _272  and  ZN_345
REMARK  112  A    between atoms: _274  and  _276
REMARK  113  A    between atoms: _276  and  _277
REMARK  114  A    between atoms: _276  and  _279
REMARK  115  A    between atoms: _279  and  _280
REMARK  116  A    between atoms: _282  and  _284
REMARK  117  A    between atoms: _284  and  _285
REMARK  118  A    between atoms: _289  and  _290
REMARK  119  A    between atoms: _295  and  _297
REMARK  120  A    between atoms: _297  and  _298
REMARK  121  A    between atoms: _297  and  _300
REMARK  122  A    between atoms: _300  and  _301
REMARK  123  A    between atoms: _306  and  _308
REMARK  124  A    between atoms: _308  and  _309
REMARK  125  A    between atoms: _308  and  _311
REMARK  126  A    between atoms: _311  and  _312
REMARK  127  A    between atoms: _312  and  _313
REMARK  128  A    between atoms: _313  and  _314
REMARK  129  A    between atoms: _314  and  _315
REMARK  130  A    between atoms: _319  and  _321
REMARK  131  A    between atoms: _321  and  _322
REMARK  132  A    between atoms: _321  and  _324
REMARK  133  A    between atoms: _326  and  _328
REMARK  134  A    between atoms: _328  and  _329
REMARK  135  A    between atoms: _332  and  _334
REMARK  136  A    between atoms: _334  and  _335
REMARK  137  A    between atoms: _337  and  _339
REMARK  138  A    between atoms: _339  and  _340
REMARK  139  A    between atoms: _339  and  _342
REMARK                            x       y       z     vdW  Elec       q    Type
REMARK                         _______ _______ _______ _____ _____    ______ ____
ROOT
ATOM      1  O   HOH     1      31.644  42.068  66.941  0.00  0.00    +0.000 OA
ENDROOT
TORSDOF 0
REMARK  Name = ../refined-set-2016/2eg7/2eg7_pocket.pdb
REMARK  139 active torsions:
REMARK  status: ('A' for Active; 'I' for Inactive)
REMARK    1  A    between atoms: _1  and  _3
REMARK    2  A    between atoms: _14  and  _17
REMARK    3  A    between atoms: _17  and  _18
REMARK    4  A    between atoms: _23  and  _24
REMARK    5  A    between atoms: _32  and  _34
REMARK    6  A    between atoms: _34  and  _35
REMARK    7  A    between atoms: _34  and  _37
REMARK    8  A    between atoms: _37  and  _38
REMARK    9  A    between atoms: _41  and  _43
REMARK   10  A    between atoms: _43  and  _44
REMARK   11  A    between atoms: _43  and  _46
REMARK   12  A    between atoms: _46  and  _47
REMARK   13  A    between atoms: _47  and  _48
REMARK   14  A    between atoms: _48  and  _49
REMARK   15  A    between atoms: _58  and  _60
REMARK   16  A    between atoms: _60  and  _61
REMARK   17  A    between atoms: _60  and  _63
REMARK   18  A    between atoms: _63  and  _64
REMARK   19  A    between atoms: _64  and  _65
REMARK   20  A    between atoms: _67  and  _69
REMARK   21  A    between atoms: _69  and  _70
REMARK   22  A    between atoms: _69  and  _72
REMARK   23  A    between atoms: _72  and  _73
REMARK   24  A    between atoms: _78  and  _80
REMARK   25  A    between atoms: _80  and  _81
REMARK   26  A    between atoms: _80  and  _83
REMARK   27  A    between atoms: _83  and  _84
REMARK   28  A    between atoms: _87  and  _89
REMARK   29  A    between atoms: _89  and  _90
REMARK   30  A    between atoms: _89  and  _96
REMARK   31  A    between atoms: _90  and  _91
REMARK   32  A    between atoms: _91  and  _92
REMARK   33  A    between atoms: _92  and  _93
REMARK   34  A    between atoms: _93  and  _94
REMARK   35  A    between atoms: _94  and  _98
REMARK   36  A    between atoms: _98  and  _99
REMARK   37  A    between atoms: _98  and  _100
REMARK   38  A    between atoms: _99  and  ZN_344
REMARK   39  A    between atoms: _100  and  ZN_345
REMARK   40  A    between atoms: _101  and  _103
REMARK   41  A    between atoms: _103  and  _104
REMARK   42  A    between atoms: _103  and  _106
REMARK   43  A    between atoms: _106  and  _107
REMARK   44  A    between atoms: _112  and  _113
REMARK   45  A    between atoms: _116  and  _117
REMARK   46  A    between atoms: _122  and  _124
REMARK   47  A    between atoms: _124  and  _125
REMARK   48  A    between atoms: _124  and  _127
REMARK   49  A    between atoms: _127  and  _128
REMARK   50  A    between atoms: _129  and  ZN_344
REMARK   51  A    between atoms: _133  and  _135
REMARK   52  A    between atoms: _135  and  _136
REMARK   53  A    between atoms: _138  and  _140
REMARK   54  A    between atoms: _140  and  _141
REMARK   55  A    between atoms: _140  and  _143
REMARK   56  A    between atoms: _143  and  _144
REMARK   57  A    between atoms: _144  and  _145
REMARK   58  A    between atoms: _148  and  _150
REMARK   59  A    between atoms: _150  and  _151
REMARK   60  A    between atoms: _150  and  _153
REMARK   61  A    between atoms: _153  and  _154
REMARK   62  A    between atoms: _154  and  _155
REMARK   63  A    between atoms: _158  and  _160
REMARK   64  A    between atoms: _160  and  _161
REMARK   65  A    between atoms: _160  and  _163
REMARK   66  A    between atoms: _163  and  _164
REMARK   67  A    between atoms: _168  and  ZN_344
REMARK   68  A    between atoms: _169  and  _171
REMARK   69  A    between atoms: _171  and  _172
REMARK   70  A    between atoms: _171  and  _174
REMARK   71  A    between atoms: _174  and  _175
REMARK   72  A    between atoms: _178  and  _180
REMARK   73  A    between atoms: _180  and  _181
REMARK   74  A    between atoms: _180  and  _183
REMARK   75  A    between atoms: _183  and  _184
REMARK   76  A    between atoms: _184  and  _185
REMARK   77  A    between atoms: _190  and  _192
REMARK   78  A    between atoms: _192  and  _193
REMARK   79  A    between atoms: _192  and  _195
REMARK   80  A    between atoms: _195  and  _196
REMARK   81  A    between atoms: _201  and  _203
REMARK   82  A    between atoms: _203  and  _204
REMARK   83  A    between atoms: _203  and  _206
REMARK   84  A    between atoms: _206  and  _207
REMARK   85  A    between atoms: _210  and  _212
REMARK   86  A    between atoms: _212  and  _213
REMARK   87  A    between atoms: _212  and  _215
REMARK   88  A    between atoms: _215  and  _216
REMARK   89  A    between atoms: _221  and  _222
REMARK   90  A    between atoms: _224  and  _226
REMARK   91  A    between atoms: _226  and  _227
REMARK   92  A    between atoms: _226  and  _229
REMARK   93  A    between atoms: _231  and  _233
REMARK   94  A    between atoms: _233  and  _234
REMARK   95  A    between atoms: _233  and  _236
REMARK   96  A    between atoms: _236  and  _237
REMARK   97  A    between atoms: _241  and  _242
REMARK   98  A    between atoms: _247  and  _249
REMARK   99  A    between atoms: _249  and  _250
REMARK  100  A    between atoms: _249  and  _252
REMARK  101  A    between atoms: _252  and  _253
REMARK  102  A    between atoms: _256  and  _258
REMARK  103  A    between atoms: _258  and  _259
REMARK  104  A    between atoms: _258  and  _261
REMARK  105  A    between atoms: _261  and  _262
REMARK  106  A    between atoms: _265  and  _267
REMARK  107  A    between atoms: _267  and  _268
REMARK  108  A    between atoms: _267  and  _270
REMARK  109  A    between atoms: _270  and  _271
REMARK  110  A    between atoms: _271  and  _272
REMARK  111  A    between atoms: _272  and  ZN_345
REMARK  112  A    between atoms: _274  and  _276
REMARK  113  A    between atoms: _276  and  _277
REMARK  114  A    between atoms: _276  and  _279
REMARK  115  A    between atoms: _279  and  _280
REMARK  116  A    between atoms: _282  and  _284
REMARK  117  A    between atoms: _284  and  _285
REMARK  118  A    between atoms: _289  and  _290
REMARK  119  A    between atoms: _295  and  _297
REMARK  120  A    between atoms: _297  and  _298
REMARK  121  A    between atoms: _297  and  _300
REMARK  122  A    between atoms: _300  and  _301
REMARK  123  A    between atoms: _306  and  _308
REMARK  124  A    between atoms: _308  and  _309
REMARK  125  A    between atoms: _308  and  _311
REMARK  126  A    between atoms: _311  and  _312
REMARK  127  A    between atoms: _312  and  _313
REMARK  128  A    between atoms: _313  and  _314
REMARK  129  A    between atoms: _314  and  _315
REMARK  130  A    between atoms: _319  and  _321
REMARK  131  A    between atoms: _321  and  _322
REMARK  132  A    between atoms: _321  and  _324
REMARK  133  A    between atoms: _326  and  _328
REMARK  134  A    between atoms: _328  and  _329
REMARK  135  A    between atoms: _332  and  _334
REMARK  136  A    between atoms: _334  and  _335
REMARK  137  A    between atoms: _337  and  _339
REMARK  138  A    between atoms: _339  and  _340
REMARK  139  A    between atoms: _339  and  _342
REMARK                            x       y       z     vdW  Elec       q    Type
REMARK                         _______ _______ _______ _____ _____    ______ ____
ROOT
ATOM      1  O   HOH     1      24.413  36.885  65.710  0.00  0.00    +0.000 OA
ENDROOT
TORSDOF 0
REMARK  Name = ../refined-set-2016/2eg7/2eg7_pocket.pdb
REMARK  139 active torsions:
REMARK  status: ('A' for Active; 'I' for Inactive)
REMARK    1  A    between atoms: _1  and  _3
REMARK    2  A    between atoms: _14  and  _17
REMARK    3  A    between atoms: _17  and  _18
REMARK    4  A    between atoms: _23  and  _24
REMARK    5  A    between atoms: _32  and  _34
REMARK    6  A    between atoms: _34  and  _35
REMARK    7  A    between atoms: _34  and  _37
REMARK    8  A    between atoms: _37  and  _38
REMARK    9  A    between atoms: _41  and  _43
REMARK   10  A    between atoms: _43  and  _44
REMARK   11  A    between atoms: _43  and  _46
REMARK   12  A    between atoms: _46  and  _47
REMARK   13  A    between atoms: _47  and  _48
REMARK   14  A    between atoms: _48  and  _49
REMARK   15  A    between atoms: _58  and  _60
REMARK   16  A    between atoms: _60  and  _61
REMARK   17  A    between atoms: _60  and  _63
REMARK   18  A    between atoms: _63  and  _64
REMARK   19  A    between atoms: _64  and  _65
REMARK   20  A    between atoms: _67  and  _69
REMARK   21  A    between atoms: _69  and  _70
REMARK   22  A    between atoms: _69  and  _72
REMARK   23  A    between atoms: _72  and  _73
REMARK   24  A    between atoms: _78  and  _80
REMARK   25  A    between atoms: _80  and  _81
REMARK   26  A    between atoms: _80  and  _83
REMARK   27  A    between atoms: _83  and  _84
REMARK   28  A    between atoms: _87  and  _89
REMARK   29  A    between atoms: _89  and  _90
REMARK   30  A    between atoms: _89  and  _96
REMARK   31  A    between atoms: _90  and  _91
REMARK   32  A    between atoms: _91  and  _92
REMARK   33  A    between atoms: _92  and  _93
REMARK   34  A    between atoms: _93  and  _94
REMARK   35  A    between atoms: _94  and  _98
REMARK   36  A    between atoms: _98  and  _99
REMARK   37  A    between atoms: _98  and  _100
REMARK   38  A    between atoms: _99  and  ZN_344
REMARK   39  A    between atoms: _100  and  ZN_345
REMARK   40  A    between atoms: _101  and  _103
REMARK   41  A    between atoms: _103  and  _104
REMARK   42  A    between atoms: _103  and  _106
REMARK   43  A    between atoms: _106  and  _107
REMARK   44  A    between atoms: _112  and  _113
REMARK   45  A    between atoms: _116  and  _117
REMARK   46  A    between atoms: _122  and  _124
REMARK   47  A    between atoms: _124  and  _125
REMARK   48  A    between atoms: _124  and  _127
REMARK   49  A    between atoms: _127  and  _128
REMARK   50  A    between atoms: _129  and  ZN_344
REMARK   51  A    between atoms: _133  and  _135
REMARK   52  A    between atoms: _135  and  _136
REMARK   53  A    between atoms: _138  and  _140
REMARK   54  A    between atoms: _140  and  _141
REMARK   55  A    between atoms: _140  and  _143
REMARK   56  A    between atoms: _143  and  _144
REMARK   57  A    between atoms: _144  and  _145
REMARK   58  A    between atoms: _148  and  _150
REMARK   59  A    between atoms: _150  and  _151
REMARK   60  A    between atoms: _150  and  _153
REMARK   61  A    between atoms: _153  and  _154
REMARK   62  A    between atoms: _154  and  _155
REMARK   63  A    between atoms: _158  and  _160
REMARK   64  A    between atoms: _160  and  _161
REMARK   65  A    between atoms: _160  and  _163
REMARK   66  A    between atoms: _163  and  _164
REMARK   67  A    between atoms: _168  and  ZN_344
REMARK   68  A    between atoms: _169  and  _171
REMARK   69  A    between atoms: _171  and  _172
REMARK   70  A    between atoms: _171  and  _174
REMARK   71  A    between atoms: _174  and  _175
REMARK   72  A    between atoms: _178  and  _180
REMARK   73  A    between atoms: _180  and  _181
REMARK   74  A    between atoms: _180  and  _183
REMARK   75  A    between atoms: _183  and  _184
REMARK   76  A    between atoms: _184  and  _185
REMARK   77  A    between atoms: _190  and  _192
REMARK   78  A    between atoms: _192  and  _193
REMARK   79  A    between atoms: _192  and  _195
REMARK   80  A    between atoms: _195  and  _196
REMARK   81  A    between atoms: _201  and  _203
REMARK   82  A    between atoms: _203  and  _204
REMARK   83  A    between atoms: _203  and  _206
REMARK   84  A    between atoms: _206  and  _207
REMARK   85  A    between atoms: _210  and  _212
REMARK   86  A    between atoms: _212  and  _213
REMARK   87  A    between atoms: _212  and  _215
REMARK   88  A    between atoms: _215  and  _216
REMARK   89  A    between atoms: _221  and  _222
REMARK   90  A    between atoms: _224  and  _226
REMARK   91  A    between atoms: _226  and  _227
REMARK   92  A    between atoms: _226  and  _229
REMARK   93  A    between atoms: _231  and  _233
REMARK   94  A    between atoms: _233  and  _234
REMARK   95  A    between atoms: _233  and  _236
REMARK   96  A    between atoms: _236  and  _237
REMARK   97  A    between atoms: _241  and  _242
REMARK   98  A    between atoms: _247  and  _249
REMARK   99  A    between atoms: _249  and  _250
REMARK  100  A    between atoms: _249  and  _252
REMARK  101  A    between atoms: _252  and  _253
REMARK  102  A    between atoms: _256  and  _258
REMARK  103  A    between atoms: _258  and  _259
REMARK  104  A    between atoms: _258  and  _261
REMARK  105  A    between atoms: _261  and  _262
REMARK  106  A    between atoms: _265  and  _267
REMARK  107  A    between atoms: _267  and  _268
REMARK  108  A    between atoms: _267  and  _270
REMARK  109  A    between atoms: _270  and  _271
REMARK  110  A    between atoms: _271  and  _272
REMARK  111  A    between atoms: _272  and  ZN_345
REMARK  112  A    between atoms: _274  and  _276
REMARK  113  A    between atoms: _276  and  _277
REMARK  114  A    between atoms: _276  and  _279
REMARK  115  A    between atoms: _279  and  _280
REMARK  116  A    between atoms: _282  and  _284
REMARK  117  A    between atoms: _284  and  _285
REMARK  118  A    between atoms: _289  and  _290
REMARK  119  A    between atoms: _295  and  _297
REMARK  120  A    between atoms: _297  and  _298
REMARK  121  A    between atoms: _297  and  _300
REMARK  122  A    between atoms: _300  and  _301
REMARK  123  A    between atoms: _306  and  _308
REMARK  124  A    between atoms: _308  and  _309
REMARK  125  A    between atoms: _308  and  _311
REMARK  126  A    between atoms: _311  and  _312
REMARK  127  A    between atoms: _312  and  _313
REMARK  128  A    between atoms: _313  and  _314
REMARK  129  A    between atoms: _314  and  _315
REMARK  130  A    between atoms: _319  and  _321
REMARK  131  A    between atoms: _321  and  _322
REMARK  132  A    between atoms: _321  and  _324
REMARK  133  A    between atoms: _326  and  _328
REMARK  134  A    between atoms: _328  and  _329
REMARK  135  A    between atoms: _332  and  _334
REMARK  136  A    between atoms: _334  and  _335
REMARK  137  A    between atoms: _337  and  _339
REMARK  138  A    between atoms: _339  and  _340
REMARK  139  A    between atoms: _339  and  _342
REMARK                            x       y       z     vdW  Elec       q    Type
REMARK                         _______ _______ _______ _____ _____    ______ ____
ROOT
ATOM      1  O   HOH     1      23.118  41.428  68.727  0.00  0.00    +0.000 OA
ENDROOT
TORSDOF 0
REMARK  Name = ../refined-set-2016/2eg7/2eg7_pocket.pdb
REMARK  139 active torsions:
REMARK  status: ('A' for Active; 'I' for Inactive)
REMARK    1  A    between atoms: _1  and  _3
REMARK    2  A    between atoms: _14  and  _17
REMARK    3  A    between atoms: _17  and  _18
REMARK    4  A    between atoms: _23  and  _24
REMARK    5  A    between atoms: _32  and  _34
REMARK    6  A    between atoms: _34  and  _35
REMARK    7  A    between atoms: _34  and  _37
REMARK    8  A    between atoms: _37  and  _38
REMARK    9  A    between atoms: _41  and  _43
REMARK   10  A    between atoms: _43  and  _44
REMARK   11  A    between atoms: _43  and  _46
REMARK   12  A    between atoms: _46  and  _47
REMARK   13  A    between atoms: _47  and  _48
REMARK   14  A    between atoms: _48  and  _49
REMARK   15  A    between atoms: _58  and  _60
REMARK   16  A    between atoms: _60  and  _61
REMARK   17  A    between atoms: _60  and  _63
REMARK   18  A    between atoms: _63  and  _64
REMARK   19  A    between atoms: _64  and  _65
REMARK   20  A    between atoms: _67  and  _69
REMARK   21  A    between atoms: _69  and  _70
REMARK   22  A    between atoms: _69  and  _72
REMARK   23  A    between atoms: _72  and  _73
REMARK   24  A    between atoms: _78  and  _80
REMARK   25  A    between atoms: _80  and  _81
REMARK   26  A    between atoms: _80  and  _83
REMARK   27  A    between atoms: _83  and  _84
REMARK   28  A    between atoms: _87  and  _89
REMARK   29  A    between atoms: _89  and  _90
REMARK   30  A    between atoms: _89  and  _96
REMARK   31  A    between atoms: _90  and  _91
REMARK   32  A    between atoms: _91  and  _92
REMARK   33  A    between atoms: _92  and  _93
REMARK   34  A    between atoms: _93  and  _94
REMARK   35  A    between atoms: _94  and  _98
REMARK   36  A    between atoms: _98  and  _99
REMARK   37  A    between atoms: _98  and  _100
REMARK   38  A    between atoms: _99  and  ZN_344
REMARK   39  A    between atoms: _100  and  ZN_345
REMARK   40  A    between atoms: _101  and  _103
REMARK   41  A    between atoms: _103  and  _104
REMARK   42  A    between atoms: _103  and  _106
REMARK   43  A    between atoms: _106  and  _107
REMARK   44  A    between atoms: _112  and  _113
REMARK   45  A    between atoms: _116  and  _117
REMARK   46  A    between atoms: _122  and  _124
REMARK   47  A    between atoms: _124  and  _125
REMARK   48  A    between atoms: _124  and  _127
REMARK   49  A    between atoms: _127  and  _128
REMARK   50  A    between atoms: _129  and  ZN_344
REMARK   51  A    between atoms: _133  and  _135
REMARK   52  A    between atoms: _135  and  _136
REMARK   53  A    between atoms: _138  and  _140
REMARK   54  A    between atoms: _140  and  _141
REMARK   55  A    between atoms: _140  and  _143
REMARK   56  A    between atoms: _143  and  _144
REMARK   57  A    between atoms: _144  and  _145
REMARK   58  A    between atoms: _148  and  _150
REMARK   59  A    between atoms: _150  and  _151
REMARK   60  A    between atoms: _150  and  _153
REMARK   61  A    between atoms: _153  and  _154
REMARK   62  A    between atoms: _154  and  _155
REMARK   63  A    between atoms: _158  and  _160
REMARK   64  A    between atoms: _160  and  _161
REMARK   65  A    between atoms: _160  and  _163
REMARK   66  A    between atoms: _163  and  _164
REMARK   67  A    between atoms: _168  and  ZN_344
REMARK   68  A    between atoms: _169  and  _171
REMARK   69  A    between atoms: _171  and  _172
REMARK   70  A    between atoms: _171  and  _174
REMARK   71  A    between atoms: _174  and  _175
REMARK   72  A    between atoms: _178  and  _180
REMARK   73  A    between atoms: _180  and  _181
REMARK   74  A    between atoms: _180  and  _183
REMARK   75  A    between atoms: _183  and  _184
REMARK   76  A    between atoms: _184  and  _185
REMARK   77  A    between atoms: _190  and  _192
REMARK   78  A    between atoms: _192  and  _193
REMARK   79  A    between atoms: _192  and  _195
REMARK   80  A    between atoms: _195  and  _196
REMARK   81  A    between atoms: _201  and  _203
REMARK   82  A    between atoms: _203  and  _204
REMARK   83  A    between atoms: _203  and  _206
REMARK   84  A    between atoms: _206  and  _207
REMARK   85  A    between atoms: _210  and  _212
REMARK   86  A    between atoms: _212  and  _213
REMARK   87  A    between atoms: _212  and  _215
REMARK   88  A    between atoms: _215  and  _216
REMARK   89  A    between atoms: _221  and  _222
REMARK   90  A    between atoms: _224  and  _226
REMARK   91  A    between atoms: _226  and  _227
REMARK   92  A    between atoms: _226  and  _229
REMARK   93  A    between atoms: _231  and  _233
REMARK   94  A    between atoms: _233  and  _234
REMARK   95  A    between atoms: _233  and  _236
REMARK   96  A    between atoms: _236  and  _237
REMARK   97  A    between atoms: _241  and  _242
REMARK   98  A    between atoms: _247  and  _249
REMARK   99  A    between atoms: _249  and  _250
REMARK  100  A    between atoms: _249  and  _252
REMARK  101  A    between atoms: _252  and  _253
REMARK  102  A    between atoms: _256  and  _258
REMARK  103  A    between atoms: _258  and  _259
REMARK  104  A    between atoms: _258  and  _261
REMARK  105  A    between atoms: _261  and  _262
REMARK  106  A    between atoms: _265  and  _267
REMARK  107  A    between atoms: _267  and  _268
REMARK  108  A    between atoms: _267  and  _270
REMARK  109  A    between atoms: _270  and  _271
REMARK  110  A    between atoms: _271  and  _272
REMARK  111  A    between atoms: _272  and  ZN_345
REMARK  112  A    between atoms: _274  and  _276
REMARK  113  A    between atoms: _276  and  _277
REMARK  114  A    between atoms: _276  and  _279
REMARK  115  A    between atoms: _279  and  _280
REMARK  116  A    between atoms: _282  and  _284
REMARK  117  A    between atoms: _284  and  _285
REMARK  118  A    between atoms: _289  and  _290
REMARK  119  A    between atoms: _295  and  _297
REMARK  120  A    between atoms: _297  and  _298
REMARK  121  A    between atoms: _297  and  _300
REMARK  122  A    between atoms: _300  and  _301
REMARK  123  A    between atoms: _306  and  _308
REMARK  124  A    between atoms: _308  and  _309
REMARK  125  A    between atoms: _308  and  _311
REMARK  126  A    between atoms: _311  and  _312
REMARK  127  A    between atoms: _312  and  _313
REMARK  128  A    between atoms: _313  and  _314
REMARK  129  A    between atoms: _314  and  _315
REMARK  130  A    between atoms: _319  and  _321
REMARK  131  A    between atoms: _321  and  _322
REMARK  132  A    between atoms: _321  and  _324
REMARK  133  A    between atoms: _326  and  _328
REMARK  134  A    between atoms: _328  and  _329
REMARK  135  A    between atoms: _332  and  _334
REMARK  136  A    between atoms: _334  and  _335
REMARK  137  A    between atoms: _337  and  _339
REMARK  138  A    between atoms: _339  and  _340
REMARK  139  A    between atoms: _339  and  _342
REMARK                            x       y       z     vdW  Elec       q    Type
REMARK                         _______ _______ _______ _____ _____    ______ ____
ROOT
ATOM      1  O   HOH     1      19.324  47.516  71.789  0.00  0.00    +0.000 OA
ENDROOT
TORSDOF 0
REMARK  Name = ../refined-set-2016/2eg7/2eg7_pocket.pdb
REMARK  139 active torsions:
REMARK  status: ('A' for Active; 'I' for Inactive)
REMARK    1  A    between atoms: _1  and  _3
REMARK    2  A    between atoms: _14  and  _17
REMARK    3  A    between atoms: _17  and  _18
REMARK    4  A    between atoms: _23  and  _24
REMARK    5  A    between atoms: _32  and  _34
REMARK    6  A    between atoms: _34  and  _35
REMARK    7  A    between atoms: _34  and  _37
REMARK    8  A    between atoms: _37  and  _38
REMARK    9  A    between atoms: _41  and  _43
REMARK   10  A    between atoms: _43  and  _44
REMARK   11  A    between atoms: _43  and  _46
REMARK   12  A    between atoms: _46  and  _47
REMARK   13  A    between atoms: _47  and  _48
REMARK   14  A    between atoms: _48  and  _49
REMARK   15  A    between atoms: _58  and  _60
REMARK   16  A    between atoms: _60  and  _61
REMARK   17  A    between atoms: _60  and  _63
REMARK   18  A    between atoms: _63  and  _64
REMARK   19  A    between atoms: _64  and  _65
REMARK   20  A    between atoms: _67  and  _69
REMARK   21  A    between atoms: _69  and  _70
REMARK   22  A    between atoms: _69  and  _72
REMARK   23  A    between atoms: _72  and  _73
REMARK   24  A    between atoms: _78  and  _80
REMARK   25  A    between atoms: _80  and  _81
REMARK   26  A    between atoms: _80  and  _83
REMARK   27  A    between atoms: _83  and  _84
REMARK   28  A    between atoms: _87  and  _89
REMARK   29  A    between atoms: _89  and  _90
REMARK   30  A    between atoms: _89  and  _96
REMARK   31  A    between atoms: _90  and  _91
REMARK   32  A    between atoms: _91  and  _92
REMARK   33  A    between atoms: _92  and  _93
REMARK   34  A    between atoms: _93  and  _94
REMARK   35  A    between atoms: _94  and  _98
REMARK   36  A    between atoms: _98  and  _99
REMARK   37  A    between atoms: _98  and  _100
REMARK   38  A    between atoms: _99  and  ZN_344
REMARK   39  A    between atoms: _100  and  ZN_345
REMARK   40  A    between atoms: _101  and  _103
REMARK   41  A    between atoms: _103  and  _104
REMARK   42  A    between atoms: _103  and  _106
REMARK   43  A    between atoms: _106  and  _107
REMARK   44  A    between atoms: _112  and  _113
REMARK   45  A    between atoms: _116  and  _117
REMARK   46  A    between atoms: _122  and  _124
REMARK   47  A    between atoms: _124  and  _125
REMARK   48  A    between atoms: _124  and  _127
REMARK   49  A    between atoms: _127  and  _128
REMARK   50  A    between atoms: _129  and  ZN_344
REMARK   51  A    between atoms: _133  and  _135
REMARK   52  A    between atoms: _135  and  _136
REMARK   53  A    between atoms: _138  and  _140
REMARK   54  A    between atoms: _140  and  _141
REMARK   55  A    between atoms: _140  and  _143
REMARK   56  A    between atoms: _143  and  _144
REMARK   57  A    between atoms: _144  and  _145
REMARK   58  A    between atoms: _148  and  _150
REMARK   59  A    between atoms: _150  and  _151
REMARK   60  A    between atoms: _150  and  _153
REMARK   61  A    between atoms: _153  and  _154
REMARK   62  A    between atoms: _154  and  _155
REMARK   63  A    between atoms: _158  and  _160
REMARK   64  A    between atoms: _160  and  _161
REMARK   65  A    between atoms: _160  and  _163
REMARK   66  A    between atoms: _163  and  _164
REMARK   67  A    between atoms: _168  and  ZN_344
REMARK   68  A    between atoms: _169  and  _171
REMARK   69  A    between atoms: _171  and  _172
REMARK   70  A    between atoms: _171  and  _174
REMARK   71  A    between atoms: _174  and  _175
REMARK   72  A    between atoms: _178  and  _180
REMARK   73  A    between atoms: _180  and  _181
REMARK   74  A    between atoms: _180  and  _183
REMARK   75  A    between atoms: _183  and  _184
REMARK   76  A    between atoms: _184  and  _185
REMARK   77  A    between atoms: _190  and  _192
REMARK   78  A    between atoms: _192  and  _193
REMARK   79  A    between atoms: _192  and  _195
REMARK   80  A    between atoms: _195  and  _196
REMARK   81  A    between atoms: _201  and  _203
REMARK   82  A    between atoms: _203  and  _204
REMARK   83  A    between atoms: _203  and  _206
REMARK   84  A    between atoms: _206  and  _207
REMARK   85  A    between atoms: _210  and  _212
REMARK   86  A    between atoms: _212  and  _213
REMARK   87  A    between atoms: _212  and  _215
REMARK   88  A    between atoms: _215  and  _216
REMARK   89  A    between atoms: _221  and  _222
REMARK   90  A    between atoms: _224  and  _226
REMARK   91  A    between atoms: _226  and  _227
REMARK   92  A    between atoms: _226  and  _229
REMARK   93  A    between atoms: _231  and  _233
REMARK   94  A    between atoms: _233  and  _234
REMARK   95  A    between atoms: _233  and  _236
REMARK   96  A    between atoms: _236  and  _237
REMARK   97  A    between atoms: _241  and  _242
REMARK   98  A    between atoms: _247  and  _249
REMARK   99  A    between atoms: _249  and  _250
REMARK  100  A    between atoms: _249  and  _252
REMARK  101  A    between atoms: _252  and  _253
REMARK  102  A    between atoms: _256  and  _258
REMARK  103  A    between atoms: _258  and  _259
REMARK  104  A    between atoms: _258  and  _261
REMARK  105  A    between atoms: _261  and  _262
REMARK  106  A    between atoms: _265  and  _267
REMARK  107  A    between atoms: _267  and  _268
REMARK  108  A    between atoms: _267  and  _270
REMARK  109  A    between atoms: _270  and  _271
REMARK  110  A    between atoms: _271  and  _272
REMARK  111  A    between atoms: _272  and  ZN_345
REMARK  112  A    between atoms: _274  and  _276
REMARK  113  A    between atoms: _276  and  _277
REMARK  114  A    between atoms: _276  and  _279
REMARK  115  A    between atoms: _279  and  _280
REMARK  116  A    between atoms: _282  and  _284
REMARK  117  A    between atoms: _284  and  _285
REMARK  118  A    between atoms: _289  and  _290
REMARK  119  A    between atoms: _295  and  _297
REMARK  120  A    between atoms: _297  and  _298
REMARK  121  A    between atoms: _297  and  _300
REMARK  122  A    between atoms: _300  and  _301
REMARK  123  A    between atoms: _306  and  _308
REMARK  124  A    between atoms: _308  and  _309
REMARK  125  A    between atoms: _308  and  _311
REMARK  126  A    between atoms: _311  and  _312
REMARK  127  A    between atoms: _312  and  _313
REMARK  128  A    between atoms: _313  and  _314
REMARK  129  A    between atoms: _314  and  _315
REMARK  130  A    between atoms: _319  and  _321
REMARK  131  A    between atoms: _321  and  _322
REMARK  132  A    between atoms: _321  and  _324
REMARK  133  A    between atoms: _326  and  _328
REMARK  134  A    between atoms: _328  and  _329
REMARK  135  A    between atoms: _332  and  _334
REMARK  136  A    between atoms: _334  and  _335
REMARK  137  A    between atoms: _337  and  _339
REMARK  138  A    between atoms: _339  and  _340
REMARK  139  A    between atoms: _339  and  _342
REMARK                            x       y       z     vdW  Elec       q    Type
REMARK                         _______ _______ _______ _____ _____    ______ ____
ROOT
ATOM      1  O   HOH     1      18.314  45.820  68.898  0.00  0.00    +0.000 OA
ENDROOT
TORSDOF 0
REMARK  Name = ../refined-set-2016/2eg7/2eg7_pocket.pdb
REMARK  139 active torsions:
REMARK  status: ('A' for Active; 'I' for Inactive)
REMARK    1  A    between atoms: _1  and  _3
REMARK    2  A    between atoms: _14  and  _17
REMARK    3  A    between atoms: _17  and  _18
REMARK    4  A    between atoms: _23  and  _24
REMARK    5  A    between atoms: _32  and  _34
REMARK    6  A    between atoms: _34  and  _35
REMARK    7  A    between atoms: _34  and  _37
REMARK    8  A    between atoms: _37  and  _38
REMARK    9  A    between atoms: _41  and  _43
REMARK   10  A    between atoms: _43  and  _44
REMARK   11  A    between atoms: _43  and  _46
REMARK   12  A    between atoms: _46  and  _47
REMARK   13  A    between atoms: _47  and  _48
REMARK   14  A    between atoms: _48  and  _49
REMARK   15  A    between atoms: _58  and  _60
REMARK   16  A    between atoms: _60  and  _61
REMARK   17  A    between atoms: _60  and  _63
REMARK   18  A    between atoms: _63  and  _64
REMARK   19  A    between atoms: _64  and  _65
REMARK   20  A    between atoms: _67  and  _69
REMARK   21  A    between atoms: _69  and  _70
REMARK   22  A    between atoms: _69  and  _72
REMARK   23  A    between atoms: _72  and  _73
REMARK   24  A    between atoms: _78  and  _80
REMARK   25  A    between atoms: _80  and  _81
REMARK   26  A    between atoms: _80  and  _83
REMARK   27  A    between atoms: _83  and  _84
REMARK   28  A    between atoms: _87  and  _89
REMARK   29  A    between atoms: _89  and  _90
REMARK   30  A    between atoms: _89  and  _96
REMARK   31  A    between atoms: _90  and  _91
REMARK   32  A    between atoms: _91  and  _92
REMARK   33  A    between atoms: _92  and  _93
REMARK   34  A    between atoms: _93  and  _94
REMARK   35  A    between atoms: _94  and  _98
REMARK   36  A    between atoms: _98  and  _99
REMARK   37  A    between atoms: _98  and  _100
REMARK   38  A    between atoms: _99  and  ZN_344
REMARK   39  A    between atoms: _100  and  ZN_345
REMARK   40  A    between atoms: _101  and  _103
REMARK   41  A    between atoms: _103  and  _104
REMARK   42  A    between atoms: _103  and  _106
REMARK   43  A    between atoms: _106  and  _107
REMARK   44  A    between atoms: _112  and  _113
REMARK   45  A    between atoms: _116  and  _117
REMARK   46  A    between atoms: _122  and  _124
REMARK   47  A    between atoms: _124  and  _125
REMARK   48  A    between atoms: _124  and  _127
REMARK   49  A    between atoms: _127  and  _128
REMARK   50  A    between atoms: _129  and  ZN_344
REMARK   51  A    between atoms: _133  and  _135
REMARK   52  A    between atoms: _135  and  _136
REMARK   53  A    between atoms: _138  and  _140
REMARK   54  A    between atoms: _140  and  _141
REMARK   55  A    between atoms: _140  and  _143
REMARK   56  A    between atoms: _143  and  _144
REMARK   57  A    between atoms: _144  and  _145
REMARK   58  A    between atoms: _148  and  _150
REMARK   59  A    between atoms: _150  and  _151
REMARK   60  A    between atoms: _150  and  _153
REMARK   61  A    between atoms: _153  and  _154
REMARK   62  A    between atoms: _154  and  _155
REMARK   63  A    between atoms: _158  and  _160
REMARK   64  A    between atoms: _160  and  _161
REMARK   65  A    between atoms: _160  and  _163
REMARK   66  A    between atoms: _163  and  _164
REMARK   67  A    between atoms: _168  and  ZN_344
REMARK   68  A    between atoms: _169  and  _171
REMARK   69  A    between atoms: _171  and  _172
REMARK   70  A    between atoms: _171  and  _174
REMARK   71  A    between atoms: _174  and  _175
REMARK   72  A    between atoms: _178  and  _180
REMARK   73  A    between atoms: _180  and  _181
REMARK   74  A    between atoms: _180  and  _183
REMARK   75  A    between atoms: _183  and  _184
REMARK   76  A    between atoms: _184  and  _185
REMARK   77  A    between atoms: _190  and  _192
REMARK   78  A    between atoms: _192  and  _193
REMARK   79  A    between atoms: _192  and  _195
REMARK   80  A    between atoms: _195  and  _196
REMARK   81  A    between atoms: _201  and  _203
REMARK   82  A    between atoms: _203  and  _204
REMARK   83  A    between atoms: _203  and  _206
REMARK   84  A    between atoms: _206  and  _207
REMARK   85  A    between atoms: _210  and  _212
REMARK   86  A    between atoms: _212  and  _213
REMARK   87  A    between atoms: _212  and  _215
REMARK   88  A    between atoms: _215  and  _216
REMARK   89  A    between atoms: _221  and  _222
REMARK   90  A    between atoms: _224  and  _226
REMARK   91  A    between atoms: _226  and  _227
REMARK   92  A    between atoms: _226  and  _229
REMARK   93  A    between atoms: _231  and  _233
REMARK   94  A    between atoms: _233  and  _234
REMARK   95  A    between atoms: _233  and  _236
REMARK   96  A    between atoms: _236  and  _237
REMARK   97  A    between atoms: _241  and  _242
REMARK   98  A    between atoms: _247  and  _249
REMARK   99  A    between atoms: _249  and  _250
REMARK  100  A    between atoms: _249  and  _252
REMARK  101  A    between atoms: _252  and  _253
REMARK  102  A    between atoms: _256  and  _258
REMARK  103  A    between atoms: _258  and  _259
REMARK  104  A    between atoms: _258  and  _261
REMARK  105  A    between atoms: _261  and  _262
REMARK  106  A    between atoms: _265  and  _267
REMARK  107  A    between atoms: _267  and  _268
REMARK  108  A    between atoms: _267  and  _270
REMARK  109  A    between atoms: _270  and  _271
REMARK  110  A    between atoms: _271  and  _272
REMARK  111  A    between atoms: _272  and  ZN_345
REMARK  112  A    between atoms: _274  and  _276
REMARK  113  A    between atoms: _276  and  _277
REMARK  114  A    between atoms: _276  and  _279
REMARK  115  A    between atoms: _279  and  _280
REMARK  116  A    between atoms: _282  and  _284
REMARK  117  A    between atoms: _284  and  _285
REMARK  118  A    between atoms: _289  and  _290
REMARK  119  A    between atoms: _295  and  _297
REMARK  120  A    between atoms: _297  and  _298
REMARK  121  A    between atoms: _297  and  _300
REMARK  122  A    between atoms: _300  and  _301
REMARK  123  A    between atoms: _306  and  _308
REMARK  124  A    between atoms: _308  and  _309
REMARK  125  A    between atoms: _308  and  _311
REMARK  126  A    between atoms: _311  and  _312
REMARK  127  A    between atoms: _312  and  _313
REMARK  128  A    between atoms: _313  and  _314
REMARK  129  A    between atoms: _314  and  _315
REMARK  130  A    between atoms: _319  and  _321
REMARK  131  A    between atoms: _321  and  _322
REMARK  132  A    between atoms: _321  and  _324
REMARK  133  A    between atoms: _326  and  _328
REMARK  134  A    between atoms: _328  and  _329
REMARK  135  A    between atoms: _332  and  _334
REMARK  136  A    between atoms: _334  and  _335
REMARK  137  A    between atoms: _337  and  _339
REMARK  138  A    between atoms: _339  and  _340
REMARK  139  A    between atoms: _339  and  _342
REMARK                            x       y       z     vdW  Elec       q    Type
REMARK                         _______ _______ _______ _____ _____    ______ ____
ROOT
ATOM      1  O   HOH     1      26.561  41.142  68.603  0.00  0.00    +0.000 OA
ENDROOT
TORSDOF 0
REMARK  Name = ../refined-set-2016/2eg7/2eg7_pocket.pdb
REMARK  139 active torsions:
REMARK  status: ('A' for Active; 'I' for Inactive)
REMARK    1  A    between atoms: _1  and  _3
REMARK    2  A    between atoms: _14  and  _17
REMARK    3  A    between atoms: _17  and  _18
REMARK    4  A    between atoms: _23  and  _24
REMARK    5  A    between atoms: _32  and  _34
REMARK    6  A    between atoms: _34  and  _35
REMARK    7  A    between atoms: _34  and  _37
REMARK    8  A    between atoms: _37  and  _38
REMARK    9  A    between atoms: _41  and  _43
REMARK   10  A    between atoms: _43  and  _44
REMARK   11  A    between atoms: _43  and  _46
REMARK   12  A    between atoms: _46  and  _47
REMARK   13  A    between atoms: _47  and  _48
REMARK   14  A    between atoms: _48  and  _49
REMARK   15  A    between atoms: _58  and  _60
REMARK   16  A    between atoms: _60  and  _61
REMARK   17  A    between atoms: _60  and  _63
REMARK   18  A    between atoms: _63  and  _64
REMARK   19  A    between atoms: _64  and  _65
REMARK   20  A    between atoms: _67  and  _69
REMARK   21  A    between atoms: _69  and  _70
REMARK   22  A    between atoms: _69  and  _72
REMARK   23  A    between atoms: _72  and  _73
REMARK   24  A    between atoms: _78  and  _80
REMARK   25  A    between atoms: _80  and  _81
REMARK   26  A    between atoms: _80  and  _83
REMARK   27  A    between atoms: _83  and  _84
REMARK   28  A    between atoms: _87  and  _89
REMARK   29  A    between atoms: _89  and  _90
REMARK   30  A    between atoms: _89  and  _96
REMARK   31  A    between atoms: _90  and  _91
REMARK   32  A    between atoms: _91  and  _92
REMARK   33  A    between atoms: _92  and  _93
REMARK   34  A    between atoms: _93  and  _94
REMARK   35  A    between atoms: _94  and  _98
REMARK   36  A    between atoms: _98  and  _99
REMARK   37  A    between atoms: _98  and  _100
REMARK   38  A    between atoms: _99  and  ZN_344
REMARK   39  A    between atoms: _100  and  ZN_345
REMARK   40  A    between atoms: _101  and  _103
REMARK   41  A    between atoms: _103  and  _104
REMARK   42  A    between atoms: _103  and  _106
REMARK   43  A    between atoms: _106  and  _107
REMARK   44  A    between atoms: _112  and  _113
REMARK   45  A    between atoms: _116  and  _117
REMARK   46  A    between atoms: _122  and  _124
REMARK   47  A    between atoms: _124  and  _125
REMARK   48  A    between atoms: _124  and  _127
REMARK   49  A    between atoms: _127  and  _128
REMARK   50  A    between atoms: _129  and  ZN_344
REMARK   51  A    between atoms: _133  and  _135
REMARK   52  A    between atoms: _135  and  _136
REMARK   53  A    between atoms: _138  and  _140
REMARK   54  A    between atoms: _140  and  _141
REMARK   55  A    between atoms: _140  and  _143
REMARK   56  A    between atoms: _143  and  _144
REMARK   57  A    between atoms: _144  and  _145
REMARK   58  A    between atoms: _148  and  _150
REMARK   59  A    between atoms: _150  and  _151
REMARK   60  A    between atoms: _150  and  _153
REMARK   61  A    between atoms: _153  and  _154
REMARK   62  A    between atoms: _154  and  _155
REMARK   63  A    between atoms: _158  and  _160
REMARK   64  A    between atoms: _160  and  _161
REMARK   65  A    between atoms: _160  and  _163
REMARK   66  A    between atoms: _163  and  _164
REMARK   67  A    between atoms: _168  and  ZN_344
REMARK   68  A    between atoms: _169  and  _171
REMARK   69  A    between atoms: _171  and  _172
REMARK   70  A    between atoms: _171  and  _174
REMARK   71  A    between atoms: _174  and  _175
REMARK   72  A    between atoms: _178  and  _180
REMARK   73  A    between atoms: _180  and  _181
REMARK   74  A    between atoms: _180  and  _183
REMARK   75  A    between atoms: _183  and  _184
REMARK   76  A    between atoms: _184  and  _185
REMARK   77  A    between atoms: _190  and  _192
REMARK   78  A    between atoms: _192  and  _193
REMARK   79  A    between atoms: _192  and  _195
REMARK   80  A    between atoms: _195  and  _196
REMARK   81  A    between atoms: _201  and  _203
REMARK   82  A    between atoms: _203  and  _204
REMARK   83  A    between atoms: _203  and  _206
REMARK   84  A    between atoms: _206  and  _207
REMARK   85  A    between atoms: _210  and  _212
REMARK   86  A    between atoms: _212  and  _213
REMARK   87  A    between atoms: _212  and  _215
REMARK   88  A    between atoms: _215  and  _216
REMARK   89  A    between atoms: _221  and  _222
REMARK   90  A    between atoms: _224  and  _226
REMARK   91  A    between atoms: _226  and  _227
REMARK   92  A    between atoms: _226  and  _229
REMARK   93  A    between atoms: _231  and  _233
REMARK   94  A    between atoms: _233  and  _234
REMARK   95  A    between atoms: _233  and  _236
REMARK   96  A    between atoms: _236  and  _237
REMARK   97  A    between atoms: _241  and  _242
REMARK   98  A    between atoms: _247  and  _249
REMARK   99  A    between atoms: _249  and  _250
REMARK  100  A    between atoms: _249  and  _252
REMARK  101  A    between atoms: _252  and  _253
REMARK  102  A    between atoms: _256  and  _258
REMARK  103  A    between atoms: _258  and  _259
REMARK  104  A    between atoms: _258  and  _261
REMARK  105  A    between atoms: _261  and  _262
REMARK  106  A    between atoms: _265  and  _267
REMARK  107  A    between atoms: _267  and  _268
REMARK  108  A    between atoms: _267  and  _270
REMARK  109  A    between atoms: _270  and  _271
REMARK  110  A    between atoms: _271  and  _272
REMARK  111  A    between atoms: _272  and  ZN_345
REMARK  112  A    between atoms: _274  and  _276
REMARK  113  A    between atoms: _276  and  _277
REMARK  114  A    between atoms: _276  and  _279
REMARK  115  A    between atoms: _279  and  _280
REMARK  116  A    between atoms: _282  and  _284
REMARK  117  A    between atoms: _284  and  _285
REMARK  118  A    between atoms: _289  and  _290
REMARK  119  A    between atoms: _295  and  _297
REMARK  120  A    between atoms: _297  and  _298
REMARK  121  A    between atoms: _297  and  _300
REMARK  122  A    between atoms: _300  and  _301
REMARK  123  A    between atoms: _306  and  _308
REMARK  124  A    between atoms: _308  and  _309
REMARK  125  A    between atoms: _308  and  _311
REMARK  126  A    between atoms: _311  and  _312
REMARK  127  A    between atoms: _312  and  _313
REMARK  128  A    between atoms: _313  and  _314
REMARK  129  A    between atoms: _314  and  _315
REMARK  130  A    between atoms: _319  and  _321
REMARK  131  A    between atoms: _321  and  _322
REMARK  132  A    between atoms: _321  and  _324
REMARK  133  A    between atoms: _326  and  _328
REMARK  134  A    between atoms: _328  and  _329
REMARK  135  A    between atoms: _332  and  _334
REMARK  136  A    between atoms: _334  and  _335
REMARK  137  A    between atoms: _337  and  _339
REMARK  138  A    between atoms: _339  and  _340
REMARK  139  A    between atoms: _339  and  _342
REMARK                            x       y       z     vdW  Elec       q    Type
REMARK                         _______ _______ _______ _____ _____    ______ ____
ROOT
ATOM      1  O   HOH     1      21.931  47.066  70.049  0.00  0.00    +0.000 OA
ENDROOT
TORSDOF 0
REMARK  Name = ../refined-set-2016/2eg7/2eg7_pocket.pdb
REMARK  139 active torsions:
REMARK  status: ('A' for Active; 'I' for Inactive)
REMARK    1  A    between atoms: _1  and  _3
REMARK    2  A    between atoms: _14  and  _17
REMARK    3  A    between atoms: _17  and  _18
REMARK    4  A    between atoms: _23  and  _24
REMARK    5  A    between atoms: _32  and  _34
REMARK    6  A    between atoms: _34  and  _35
REMARK    7  A    between atoms: _34  and  _37
REMARK    8  A    between atoms: _37  and  _38
REMARK    9  A    between atoms: _41  and  _43
REMARK   10  A    between atoms: _43  and  _44
REMARK   11  A    between atoms: _43  and  _46
REMARK   12  A    between atoms: _46  and  _47
REMARK   13  A    between atoms: _47  and  _48
REMARK   14  A    between atoms: _48  and  _49
REMARK   15  A    between atoms: _58  and  _60
REMARK   16  A    between atoms: _60  and  _61
REMARK   17  A    between atoms: _60  and  _63
REMARK   18  A    between atoms: _63  and  _64
REMARK   19  A    between atoms: _64  and  _65
REMARK   20  A    between atoms: _67  and  _69
REMARK   21  A    between atoms: _69  and  _70
REMARK   22  A    between atoms: _69  and  _72
REMARK   23  A    between atoms: _72  and  _73
REMARK   24  A    between atoms: _78  and  _80
REMARK   25  A    between atoms: _80  and  _81
REMARK   26  A    between atoms: _80  and  _83
REMARK   27  A    between atoms: _83  and  _84
REMARK   28  A    between atoms: _87  and  _89
REMARK   29  A    between atoms: _89  and  _90
REMARK   30  A    between atoms: _89  and  _96
REMARK   31  A    between atoms: _90  and  _91
REMARK   32  A    between atoms: _91  and  _92
REMARK   33  A    between atoms: _92  and  _93
REMARK   34  A    between atoms: _93  and  _94
REMARK   35  A    between atoms: _94  and  _98
REMARK   36  A    between atoms: _98  and  _99
REMARK   37  A    between atoms: _98  and  _100
REMARK   38  A    between atoms: _99  and  ZN_344
REMARK   39  A    between atoms: _100  and  ZN_345
REMARK   40  A    between atoms: _101  and  _103
REMARK   41  A    between atoms: _103  and  _104
REMARK   42  A    between atoms: _103  and  _106
REMARK   43  A    between atoms: _106  and  _107
REMARK   44  A    between atoms: _112  and  _113
REMARK   45  A    between atoms: _116  and  _117
REMARK   46  A    between atoms: _122  and  _124
REMARK   47  A    between atoms: _124  and  _125
REMARK   48  A    between atoms: _124  and  _127
REMARK   49  A    between atoms: _127  and  _128
REMARK   50  A    between atoms: _129  and  ZN_344
REMARK   51  A    between atoms: _133  and  _135
REMARK   52  A    between atoms: _135  and  _136
REMARK   53  A    between atoms: _138  and  _140
REMARK   54  A    between atoms: _140  and  _141
REMARK   55  A    between atoms: _140  and  _143
REMARK   56  A    between atoms: _143  and  _144
REMARK   57  A    between atoms: _144  and  _145
REMARK   58  A    between atoms: _148  and  _150
REMARK   59  A    between atoms: _150  and  _151
REMARK   60  A    between atoms: _150  and  _153
REMARK   61  A    between atoms: _153  and  _154
REMARK   62  A    between atoms: _154  and  _155
REMARK   63  A    between atoms: _158  and  _160
REMARK   64  A    between atoms: _160  and  _161
REMARK   65  A    between atoms: _160  and  _163
REMARK   66  A    between atoms: _163  and  _164
REMARK   67  A    between atoms: _168  and  ZN_344
REMARK   68  A    between atoms: _169  and  _171
REMARK   69  A    between atoms: _171  and  _172
REMARK   70  A    between atoms: _171  and  _174
REMARK   71  A    between atoms: _174  and  _175
REMARK   72  A    between atoms: _178  and  _180
REMARK   73  A    between atoms: _180  and  _181
REMARK   74  A    between atoms: _180  and  _183
REMARK   75  A    between atoms: _183  and  _184
REMARK   76  A    between atoms: _184  and  _185
REMARK   77  A    between atoms: _190  and  _192
REMARK   78  A    between atoms: _192  and  _193
REMARK   79  A    between atoms: _192  and  _195
REMARK   80  A    between atoms: _195  and  _196
REMARK   81  A    between atoms: _201  and  _203
REMARK   82  A    between atoms: _203  and  _204
REMARK   83  A    between atoms: _203  and  _206
REMARK   84  A    between atoms: _206  and  _207
REMARK   85  A    between atoms: _210  and  _212
REMARK   86  A    between atoms: _212  and  _213
REMARK   87  A    between atoms: _212  and  _215
REMARK   88  A    between atoms: _215  and  _216
REMARK   89  A    between atoms: _221  and  _222
REMARK   90  A    between atoms: _224  and  _226
REMARK   91  A    between atoms: _226  and  _227
REMARK   92  A    between atoms: _226  and  _229
REMARK   93  A    between atoms: _231  and  _233
REMARK   94  A    between atoms: _233  and  _234
REMARK   95  A    between atoms: _233  and  _236
REMARK   96  A    between atoms: _236  and  _237
REMARK   97  A    between atoms: _241  and  _242
REMARK   98  A    between atoms: _247  and  _249
REMARK   99  A    between atoms: _249  and  _250
REMARK  100  A    between atoms: _249  and  _252
REMARK  101  A    between atoms: _252  and  _253
REMARK  102  A    between atoms: _256  and  _258
REMARK  103  A    between atoms: _258  and  _259
REMARK  104  A    between atoms: _258  and  _261
REMARK  105  A    between atoms: _261  and  _262
REMARK  106  A    between atoms: _265  and  _267
REMARK  107  A    between atoms: _267  and  _268
REMARK  108  A    between atoms: _267  and  _270
REMARK  109  A    between atoms: _270  and  _271
REMARK  110  A    between atoms: _271  and  _272
REMARK  111  A    between atoms: _272  and  ZN_345
REMARK  112  A    between atoms: _274  and  _276
REMARK  113  A    between atoms: _276  and  _277
REMARK  114  A    between atoms: _276  and  _279
REMARK  115  A    between atoms: _279  and  _280
REMARK  116  A    between atoms: _282  and  _284
REMARK  117  A    between atoms: _284  and  _285
REMARK  118  A    between atoms: _289  and  _290
REMARK  119  A    between atoms: _295  and  _297
REMARK  120  A    between atoms: _297  and  _298
REMARK  121  A    between atoms: _297  and  _300
REMARK  122  A    between atoms: _300  and  _301
REMARK  123  A    between atoms: _306  and  _308
REMARK  124  A    between atoms: _308  and  _309
REMARK  125  A    between atoms: _308  and  _311
REMARK  126  A    between atoms: _311  and  _312
REMARK  127  A    between atoms: _312  and  _313
REMARK  128  A    between atoms: _313  and  _314
REMARK  129  A    between atoms: _314  and  _315
REMARK  130  A    between atoms: _319  and  _321
REMARK  131  A    between atoms: _321  and  _322
REMARK  132  A    between atoms: _321  and  _324
REMARK  133  A    between atoms: _326  and  _328
REMARK  134  A    between atoms: _328  and  _329
REMARK  135  A    between atoms: _332  and  _334
REMARK  136  A    between atoms: _334  and  _335
REMARK  137  A    between atoms: _337  and  _339
REMARK  138  A    between atoms: _339  and  _340
REMARK  139  A    between atoms: _339  and  _342
REMARK                            x       y       z     vdW  Elec       q    Type
REMARK                         _______ _______ _______ _____ _____    ______ ____
ROOT
ATOM      1  O   HOH     1      29.018  40.604  70.201  0.00  0.00    +0.000 OA
ENDROOT
TORSDOF 0
REMARK  Name = ../refined-set-2016/2eg7/2eg7_pocket.pdb
REMARK  139 active torsions:
REMARK  status: ('A' for Active; 'I' for Inactive)
REMARK    1  A    between atoms: _1  and  _3
REMARK    2  A    between atoms: _14  and  _17
REMARK    3  A    between atoms: _17  and  _18
REMARK    4  A    between atoms: _23  and  _24
REMARK    5  A    between atoms: _32  and  _34
REMARK    6  A    between atoms: _34  and  _35
REMARK    7  A    between atoms: _34  and  _37
REMARK    8  A    between atoms: _37  and  _38
REMARK    9  A    between atoms: _41  and  _43
REMARK   10  A    between atoms: _43  and  _44
REMARK   11  A    between atoms: _43  and  _46
REMARK   12  A    between atoms: _46  and  _47
REMARK   13  A    between atoms: _47  and  _48
REMARK   14  A    between atoms: _48  and  _49
REMARK   15  A    between atoms: _58  and  _60
REMARK   16  A    between atoms: _60  and  _61
REMARK   17  A    between atoms: _60  and  _63
REMARK   18  A    between atoms: _63  and  _64
REMARK   19  A    between atoms: _64  and  _65
REMARK   20  A    between atoms: _67  and  _69
REMARK   21  A    between atoms: _69  and  _70
REMARK   22  A    between atoms: _69  and  _72
REMARK   23  A    between atoms: _72  and  _73
REMARK   24  A    between atoms: _78  and  _80
REMARK   25  A    between atoms: _80  and  _81
REMARK   26  A    between atoms: _80  and  _83
REMARK   27  A    between atoms: _83  and  _84
REMARK   28  A    between atoms: _87  and  _89
REMARK   29  A    between atoms: _89  and  _90
REMARK   30  A    between atoms: _89  and  _96
REMARK   31  A    between atoms: _90  and  _91
REMARK   32  A    between atoms: _91  and  _92
REMARK   33  A    between atoms: _92  and  _93
REMARK   34  A    between atoms: _93  and  _94
REMARK   35  A    between atoms: _94  and  _98
REMARK   36  A    between atoms: _98  and  _99
REMARK   37  A    between atoms: _98  and  _100
REMARK   38  A    between atoms: _99  and  ZN_344
REMARK   39  A    between atoms: _100  and  ZN_345
REMARK   40  A    between atoms: _101  and  _103
REMARK   41  A    between atoms: _103  and  _104
REMARK   42  A    between atoms: _103  and  _106
REMARK   43  A    between atoms: _106  and  _107
REMARK   44  A    between atoms: _112  and  _113
REMARK   45  A    between atoms: _116  and  _117
REMARK   46  A    between atoms: _122  and  _124
REMARK   47  A    between atoms: _124  and  _125
REMARK   48  A    between atoms: _124  and  _127
REMARK   49  A    between atoms: _127  and  _128
REMARK   50  A    between atoms: _129  and  ZN_344
REMARK   51  A    between atoms: _133  and  _135
REMARK   52  A    between atoms: _135  and  _136
REMARK   53  A    between atoms: _138  and  _140
REMARK   54  A    between atoms: _140  and  _141
REMARK   55  A    between atoms: _140  and  _143
REMARK   56  A    between atoms: _143  and  _144
REMARK   57  A    between atoms: _144  and  _145
REMARK   58  A    between atoms: _148  and  _150
REMARK   59  A    between atoms: _150  and  _151
REMARK   60  A    between atoms: _150  and  _153
REMARK   61  A    between atoms: _153  and  _154
REMARK   62  A    between atoms: _154  and  _155
REMARK   63  A    between atoms: _158  and  _160
REMARK   64  A    between atoms: _160  and  _161
REMARK   65  A    between atoms: _160  and  _163
REMARK   66  A    between atoms: _163  and  _164
REMARK   67  A    between atoms: _168  and  ZN_344
REMARK   68  A    between atoms: _169  and  _171
REMARK   69  A    between atoms: _171  and  _172
REMARK   70  A    between atoms: _171  and  _174
REMARK   71  A    between atoms: _174  and  _175
REMARK   72  A    between atoms: _178  and  _180
REMARK   73  A    between atoms: _180  and  _181
REMARK   74  A    between atoms: _180  and  _183
REMARK   75  A    between atoms: _183  and  _184
REMARK   76  A    between atoms: _184  and  _185
REMARK   77  A    between atoms: _190  and  _192
REMARK   78  A    between atoms: _192  and  _193
REMARK   79  A    between atoms: _192  and  _195
REMARK   80  A    between atoms: _195  and  _196
REMARK   81  A    between atoms: _201  and  _203
REMARK   82  A    between atoms: _203  and  _204
REMARK   83  A    between atoms: _203  and  _206
REMARK   84  A    between atoms: _206  and  _207
REMARK   85  A    between atoms: _210  and  _212
REMARK   86  A    between atoms: _212  and  _213
REMARK   87  A    between atoms: _212  and  _215
REMARK   88  A    between atoms: _215  and  _216
REMARK   89  A    between atoms: _221  and  _222
REMARK   90  A    between atoms: _224  and  _226
REMARK   91  A    between atoms: _226  and  _227
REMARK   92  A    between atoms: _226  and  _229
REMARK   93  A    between atoms: _231  and  _233
REMARK   94  A    between atoms: _233  and  _234
REMARK   95  A    between atoms: _233  and  _236
REMARK   96  A    between atoms: _236  and  _237
REMARK   97  A    between atoms: _241  and  _242
REMARK   98  A    between atoms: _247  and  _249
REMARK   99  A    between atoms: _249  and  _250
REMARK  100  A    between atoms: _249  and  _252
REMARK  101  A    between atoms: _252  and  _253
REMARK  102  A    between atoms: _256  and  _258
REMARK  103  A    between atoms: _258  and  _259
REMARK  104  A    between atoms: _258  and  _261
REMARK  105  A    between atoms: _261  and  _262
REMARK  106  A    between atoms: _265  and  _267
REMARK  107  A    between atoms: _267  and  _268
REMARK  108  A    between atoms: _267  and  _270
REMARK  109  A    between atoms: _270  and  _271
REMARK  110  A    between atoms: _271  and  _272
REMARK  111  A    between atoms: _272  and  ZN_345
REMARK  112  A    between atoms: _274  and  _276
REMARK  113  A    between atoms: _276  and  _277
REMARK  114  A    between atoms: _276  and  _279
REMARK  115  A    between atoms: _279  and  _280
REMARK  116  A    between atoms: _282  and  _284
REMARK  117  A    between atoms: _284  and  _285
REMARK  118  A    between atoms: _289  and  _290
REMARK  119  A    between atoms: _295  and  _297
REMARK  120  A    between atoms: _297  and  _298
REMARK  121  A    between atoms: _297  and  _300
REMARK  122  A    between atoms: _300  and  _301
REMARK  123  A    between atoms: _306  and  _308
REMARK  124  A    between atoms: _308  and  _309
REMARK  125  A    between atoms: _308  and  _311
REMARK  126  A    between atoms: _311  and  _312
REMARK  127  A    between atoms: _312  and  _313
REMARK  128  A    between atoms: _313  and  _314
REMARK  129  A    between atoms: _314  and  _315
REMARK  130  A    between atoms: _319  and  _321
REMARK  131  A    between atoms: _321  and  _322
REMARK  132  A    between atoms: _321  and  _324
REMARK  133  A    between atoms: _326  and  _328
REMARK  134  A    between atoms: _328  and  _329
REMARK  135  A    between atoms: _332  and  _334
REMARK  136  A    between atoms: _334  and  _335
REMARK  137  A    between atoms: _337  and  _339
REMARK  138  A    between atoms: _339  and  _340
REMARK  139  A    between atoms: _339  and  _342
REMARK                            x       y       z     vdW  Elec       q    Type
REMARK                         _______ _______ _______ _____ _____    ______ ____
ROOT
ATOM      1  O   HOH     1      30.917  39.876  68.438  0.00  0.00    +0.000 OA
ENDROOT
TORSDOF 0
REMARK  Name = ../refined-set-2016/2eg7/2eg7_pocket.pdb
REMARK  139 active torsions:
REMARK  status: ('A' for Active; 'I' for Inactive)
REMARK    1  A    between atoms: _1  and  _3
REMARK    2  A    between atoms: _14  and  _17
REMARK    3  A    between atoms: _17  and  _18
REMARK    4  A    between atoms: _23  and  _24
REMARK    5  A    between atoms: _32  and  _34
REMARK    6  A    between atoms: _34  and  _35
REMARK    7  A    between atoms: _34  and  _37
REMARK    8  A    between atoms: _37  and  _38
REMARK    9  A    between atoms: _41  and  _43
REMARK   10  A    between atoms: _43  and  _44
REMARK   11  A    between atoms: _43  and  _46
REMARK   12  A    between atoms: _46  and  _47
REMARK   13  A    between atoms: _47  and  _48
REMARK   14  A    between atoms: _48  and  _49
REMARK   15  A    between atoms: _58  and  _60
REMARK   16  A    between atoms: _60  and  _61
REMARK   17  A    between atoms: _60  and  _63
REMARK   18  A    between atoms: _63  and  _64
REMARK   19  A    between atoms: _64  and  _65
REMARK   20  A    between atoms: _67  and  _69
REMARK   21  A    between atoms: _69  and  _70
REMARK   22  A    between atoms: _69  and  _72
REMARK   23  A    between atoms: _72  and  _73
REMARK   24  A    between atoms: _78  and  _80
REMARK   25  A    between atoms: _80  and  _81
REMARK   26  A    between atoms: _80  and  _83
REMARK   27  A    between atoms: _83  and  _84
REMARK   28  A    between atoms: _87  and  _89
REMARK   29  A    between atoms: _89  and  _90
REMARK   30  A    between atoms: _89  and  _96
REMARK   31  A    between atoms: _90  and  _91
REMARK   32  A    between atoms: _91  and  _92
REMARK   33  A    between atoms: _92  and  _93
REMARK   34  A    between atoms: _93  and  _94
REMARK   35  A    between atoms: _94  and  _98
REMARK   36  A    between atoms: _98  and  _99
REMARK   37  A    between atoms: _98  and  _100
REMARK   38  A    between atoms: _99  and  ZN_344
REMARK   39  A    between atoms: _100  and  ZN_345
REMARK   40  A    between atoms: _101  and  _103
REMARK   41  A    between atoms: _103  and  _104
REMARK   42  A    between atoms: _103  and  _106
REMARK   43  A    between atoms: _106  and  _107
REMARK   44  A    between atoms: _112  and  _113
REMARK   45  A    between atoms: _116  and  _117
REMARK   46  A    between atoms: _122  and  _124
REMARK   47  A    between atoms: _124  and  _125
REMARK   48  A    between atoms: _124  and  _127
REMARK   49  A    between atoms: _127  and  _128
REMARK   50  A    between atoms: _129  and  ZN_344
REMARK   51  A    between atoms: _133  and  _135
REMARK   52  A    between atoms: _135  and  _136
REMARK   53  A    between atoms: _138  and  _140
REMARK   54  A    between atoms: _140  and  _141
REMARK   55  A    between atoms: _140  and  _143
REMARK   56  A    between atoms: _143  and  _144
REMARK   57  A    between atoms: _144  and  _145
REMARK   58  A    between atoms: _148  and  _150
REMARK   59  A    between atoms: _150  and  _151
REMARK   60  A    between atoms: _150  and  _153
REMARK   61  A    between atoms: _153  and  _154
REMARK   62  A    between atoms: _154  and  _155
REMARK   63  A    between atoms: _158  and  _160
REMARK   64  A    between atoms: _160  and  _161
REMARK   65  A    between atoms: _160  and  _163
REMARK   66  A    between atoms: _163  and  _164
REMARK   67  A    between atoms: _168  and  ZN_344
REMARK   68  A    between atoms: _169  and  _171
REMARK   69  A    between atoms: _171  and  _172
REMARK   70  A    between atoms: _171  and  _174
REMARK   71  A    between atoms: _174  and  _175
REMARK   72  A    between atoms: _178  and  _180
REMARK   73  A    between atoms: _180  and  _181
REMARK   74  A    between atoms: _180  and  _183
REMARK   75  A    between atoms: _183  and  _184
REMARK   76  A    between atoms: _184  and  _185
REMARK   77  A    between atoms: _190  and  _192
REMARK   78  A    between atoms: _192  and  _193
REMARK   79  A    between atoms: _192  and  _195
REMARK   80  A    between atoms: _195  and  _196
REMARK   81  A    between atoms: _201  and  _203
REMARK   82  A    between atoms: _203  and  _204
REMARK   83  A    between atoms: _203  and  _206
REMARK   84  A    between atoms: _206  and  _207
REMARK   85  A    between atoms: _210  and  _212
REMARK   86  A    between atoms: _212  and  _213
REMARK   87  A    between atoms: _212  and  _215
REMARK   88  A    between atoms: _215  and  _216
REMARK   89  A    between atoms: _221  and  _222
REMARK   90  A    between atoms: _224  and  _226
REMARK   91  A    between atoms: _226  and  _227
REMARK   92  A    between atoms: _226  and  _229
REMARK   93  A    between atoms: _231  and  _233
REMARK   94  A    between atoms: _233  and  _234
REMARK   95  A    between atoms: _233  and  _236
REMARK   96  A    between atoms: _236  and  _237
REMARK   97  A    between atoms: _241  and  _242
REMARK   98  A    between atoms: _247  and  _249
REMARK   99  A    between atoms: _249  and  _250
REMARK  100  A    between atoms: _249  and  _252
REMARK  101  A    between atoms: _252  and  _253
REMARK  102  A    between atoms: _256  and  _258
REMARK  103  A    between atoms: _258  and  _259
REMARK  104  A    between atoms: _258  and  _261
REMARK  105  A    between atoms: _261  and  _262
REMARK  106  A    between atoms: _265  and  _267
REMARK  107  A    between atoms: _267  and  _268
REMARK  108  A    between atoms: _267  and  _270
REMARK  109  A    between atoms: _270  and  _271
REMARK  110  A    between atoms: _271  and  _272
REMARK  111  A    between atoms: _272  and  ZN_345
REMARK  112  A    between atoms: _274  and  _276
REMARK  113  A    between atoms: _276  and  _277
REMARK  114  A    between atoms: _276  and  _279
REMARK  115  A    between atoms: _279  and  _280
REMARK  116  A    between atoms: _282  and  _284
REMARK  117  A    between atoms: _284  and  _285
REMARK  118  A    between atoms: _289  and  _290
REMARK  119  A    between atoms: _295  and  _297
REMARK  120  A    between atoms: _297  and  _298
REMARK  121  A    between atoms: _297  and  _300
REMARK  122  A    between atoms: _300  and  _301
REMARK  123  A    between atoms: _306  and  _308
REMARK  124  A    between atoms: _308  and  _309
REMARK  125  A    between atoms: _308  and  _311
REMARK  126  A    between atoms: _311  and  _312
REMARK  127  A    between atoms: _312  and  _313
REMARK  128  A    between atoms: _313  and  _314
REMARK  129  A    between atoms: _314  and  _315
REMARK  130  A    between atoms: _319  and  _321
REMARK  131  A    between atoms: _321  and  _322
REMARK  132  A    between atoms: _321  and  _324
REMARK  133  A    between atoms: _326  and  _328
REMARK  134  A    between atoms: _328  and  _329
REMARK  135  A    between atoms: _332  and  _334
REMARK  136  A    between atoms: _334  and  _335
REMARK  137  A    between atoms: _337  and  _339
REMARK  138  A    between atoms: _339  and  _340
REMARK  139  A    between atoms: _339  and  _342
REMARK                            x       y       z     vdW  Elec       q    Type
REMARK                         _______ _______ _______ _____ _____    ______ ____
ROOT
ATOM      1  O   HOH     1      24.419  45.035  69.452  0.00  0.00    +0.000 OA
ENDROOT
TORSDOF 0
REMARK  Name = ../refined-set-2016/2eg7/2eg7_pocket.pdb
REMARK  139 active torsions:
REMARK  status: ('A' for Active; 'I' for Inactive)
REMARK    1  A    between atoms: _1  and  _3
REMARK    2  A    between atoms: _14  and  _17
REMARK    3  A    between atoms: _17  and  _18
REMARK    4  A    between atoms: _23  and  _24
REMARK    5  A    between atoms: _32  and  _34
REMARK    6  A    between atoms: _34  and  _35
REMARK    7  A    between atoms: _34  and  _37
REMARK    8  A    between atoms: _37  and  _38
REMARK    9  A    between atoms: _41  and  _43
REMARK   10  A    between atoms: _43  and  _44
REMARK   11  A    between atoms: _43  and  _46
REMARK   12  A    between atoms: _46  and  _47
REMARK   13  A    between atoms: _47  and  _48
REMARK   14  A    between atoms: _48  and  _49
REMARK   15  A    between atoms: _58  and  _60
REMARK   16  A    between atoms: _60  and  _61
REMARK   17  A    between atoms: _60  and  _63
REMARK   18  A    between atoms: _63  and  _64
REMARK   19  A    between atoms: _64  and  _65
REMARK   20  A    between atoms: _67  and  _69
REMARK   21  A    between atoms: _69  and  _70
REMARK   22  A    between atoms: _69  and  _72
REMARK   23  A    between atoms: _72  and  _73
REMARK   24  A    between atoms: _78  and  _80
REMARK   25  A    between atoms: _80  and  _81
REMARK   26  A    between atoms: _80  and  _83
REMARK   27  A    between atoms: _83  and  _84
REMARK   28  A    between atoms: _87  and  _89
REMARK   29  A    between atoms: _89  and  _90
REMARK   30  A    between atoms: _89  and  _96
REMARK   31  A    between atoms: _90  and  _91
REMARK   32  A    between atoms: _91  and  _92
REMARK   33  A    between atoms: _92  and  _93
REMARK   34  A    between atoms: _93  and  _94
REMARK   35  A    between atoms: _94  and  _98
REMARK   36  A    between atoms: _98  and  _99
REMARK   37  A    between atoms: _98  and  _100
REMARK   38  A    between atoms: _99  and  ZN_344
REMARK   39  A    between atoms: _100  and  ZN_345
REMARK   40  A    between atoms: _101  and  _103
REMARK   41  A    between atoms: _103  and  _104
REMARK   42  A    between atoms: _103  and  _106
REMARK   43  A    between atoms: _106  and  _107
REMARK   44  A    between atoms: _112  and  _113
REMARK   45  A    between atoms: _116  and  _117
REMARK   46  A    between atoms: _122  and  _124
REMARK   47  A    between atoms: _124  and  _125
REMARK   48  A    between atoms: _124  and  _127
REMARK   49  A    between atoms: _127  and  _128
REMARK   50  A    between atoms: _129  and  ZN_344
REMARK   51  A    between atoms: _133  and  _135
REMARK   52  A    between atoms: _135  and  _136
REMARK   53  A    between atoms: _138  and  _140
REMARK   54  A    between atoms: _140  and  _141
REMARK   55  A    between atoms: _140  and  _143
REMARK   56  A    between atoms: _143  and  _144
REMARK   57  A    between atoms: _144  and  _145
REMARK   58  A    between atoms: _148  and  _150
REMARK   59  A    between atoms: _150  and  _151
REMARK   60  A    between atoms: _150  and  _153
REMARK   61  A    between atoms: _153  and  _154
REMARK   62  A    between atoms: _154  and  _155
REMARK   63  A    between atoms: _158  and  _160
REMARK   64  A    between atoms: _160  and  _161
REMARK   65  A    between atoms: _160  and  _163
REMARK   66  A    between atoms: _163  and  _164
REMARK   67  A    between atoms: _168  and  ZN_344
REMARK   68  A    between atoms: _169  and  _171
REMARK   69  A    between atoms: _171  and  _172
REMARK   70  A    between atoms: _171  and  _174
REMARK   71  A    between atoms: _174  and  _175
REMARK   72  A    between atoms: _178  and  _180
REMARK   73  A    between atoms: _180  and  _181
REMARK   74  A    between atoms: _180  and  _183
REMARK   75  A    between atoms: _183  and  _184
REMARK   76  A    between atoms: _184  and  _185
REMARK   77  A    between atoms: _190  and  _192
REMARK   78  A    between atoms: _192  and  _193
REMARK   79  A    between atoms: _192  and  _195
REMARK   80  A    between atoms: _195  and  _196
REMARK   81  A    between atoms: _201  and  _203
REMARK   82  A    between atoms: _203  and  _204
REMARK   83  A    between atoms: _203  and  _206
REMARK   84  A    between atoms: _206  and  _207
REMARK   85  A    between atoms: _210  and  _212
REMARK   86  A    between atoms: _212  and  _213
REMARK   87  A    between atoms: _212  and  _215
REMARK   88  A    between atoms: _215  and  _216
REMARK   89  A    between atoms: _221  and  _222
REMARK   90  A    between atoms: _224  and  _226
REMARK   91  A    between atoms: _226  and  _227
REMARK   92  A    between atoms: _226  and  _229
REMARK   93  A    between atoms: _231  and  _233
REMARK   94  A    between atoms: _233  and  _234
REMARK   95  A    between atoms: _233  and  _236
REMARK   96  A    between atoms: _236  and  _237
REMARK   97  A    between atoms: _241  and  _242
REMARK   98  A    between atoms: _247  and  _249
REMARK   99  A    between atoms: _249  and  _250
REMARK  100  A    between atoms: _249  and  _252
REMARK  101  A    between atoms: _252  and  _253
REMARK  102  A    between atoms: _256  and  _258
REMARK  103  A    between atoms: _258  and  _259
REMARK  104  A    between atoms: _258  and  _261
REMARK  105  A    between atoms: _261  and  _262
REMARK  106  A    between atoms: _265  and  _267
REMARK  107  A    between atoms: _267  and  _268
REMARK  108  A    between atoms: _267  and  _270
REMARK  109  A    between atoms: _270  and  _271
REMARK  110  A    between atoms: _271  and  _272
REMARK  111  A    between atoms: _272  and  ZN_345
REMARK  112  A    between atoms: _274  and  _276
REMARK  113  A    between atoms: _276  and  _277
REMARK  114  A    between atoms: _276  and  _279
REMARK  115  A    between atoms: _279  and  _280
REMARK  116  A    between atoms: _282  and  _284
REMARK  117  A    between atoms: _284  and  _285
REMARK  118  A    between atoms: _289  and  _290
REMARK  119  A    between atoms: _295  and  _297
REMARK  120  A    between atoms: _297  and  _298
REMARK  121  A    between atoms: _297  and  _300
REMARK  122  A    between atoms: _300  and  _301
REMARK  123  A    between atoms: _306  and  _308
REMARK  124  A    between atoms: _308  and  _309
REMARK  125  A    between atoms: _308  and  _311
REMARK  126  A    between atoms: _311  and  _312
REMARK  127  A    between atoms: _312  and  _313
REMARK  128  A    between atoms: _313  and  _314
REMARK  129  A    between atoms: _314  and  _315
REMARK  130  A    between atoms: _319  and  _321
REMARK  131  A    between atoms: _321  and  _322
REMARK  132  A    between atoms: _321  and  _324
REMARK  133  A    between atoms: _326  and  _328
REMARK  134  A    between atoms: _328  and  _329
REMARK  135  A    between atoms: _332  and  _334
REMARK  136  A    between atoms: _334  and  _335
REMARK  137  A    between atoms: _337  and  _339
REMARK  138  A    between atoms: _339  and  _340
REMARK  139  A    between atoms: _339  and  _342
REMARK                            x       y       z     vdW  Elec       q    Type
REMARK                         _______ _______ _______ _____ _____    ______ ____
ROOT
ATOM      1  O   HOH     1      25.891  48.101  68.341  0.00  0.00    +0.000 OA
ENDROOT
TORSDOF 0
REMARK  Name = ../refined-set-2016/2eg7/2eg7_pocket.pdb
REMARK  139 active torsions:
REMARK  status: ('A' for Active; 'I' for Inactive)
REMARK    1  A    between atoms: _1  and  _3
REMARK    2  A    between atoms: _14  and  _17
REMARK    3  A    between atoms: _17  and  _18
REMARK    4  A    between atoms: _23  and  _24
REMARK    5  A    between atoms: _32  and  _34
REMARK    6  A    between atoms: _34  and  _35
REMARK    7  A    between atoms: _34  and  _37
REMARK    8  A    between atoms: _37  and  _38
REMARK    9  A    between atoms: _41  and  _43
REMARK   10  A    between atoms: _43  and  _44
REMARK   11  A    between atoms: _43  and  _46
REMARK   12  A    between atoms: _46  and  _47
REMARK   13  A    between atoms: _47  and  _48
REMARK   14  A    between atoms: _48  and  _49
REMARK   15  A    between atoms: _58  and  _60
REMARK   16  A    between atoms: _60  and  _61
REMARK   17  A    between atoms: _60  and  _63
REMARK   18  A    between atoms: _63  and  _64
REMARK   19  A    between atoms: _64  and  _65
REMARK   20  A    between atoms: _67  and  _69
REMARK   21  A    between atoms: _69  and  _70
REMARK   22  A    between atoms: _69  and  _72
REMARK   23  A    between atoms: _72  and  _73
REMARK   24  A    between atoms: _78  and  _80
REMARK   25  A    between atoms: _80  and  _81
REMARK   26  A    between atoms: _80  and  _83
REMARK   27  A    between atoms: _83  and  _84
REMARK   28  A    between atoms: _87  and  _89
REMARK   29  A    between atoms: _89  and  _90
REMARK   30  A    between atoms: _89  and  _96
REMARK   31  A    between atoms: _90  and  _91
REMARK   32  A    between atoms: _91  and  _92
REMARK   33  A    between atoms: _92  and  _93
REMARK   34  A    between atoms: _93  and  _94
REMARK   35  A    between atoms: _94  and  _98
REMARK   36  A    between atoms: _98  and  _99
REMARK   37  A    between atoms: _98  and  _100
REMARK   38  A    between atoms: _99  and  ZN_344
REMARK   39  A    between atoms: _100  and  ZN_345
REMARK   40  A    between atoms: _101  and  _103
REMARK   41  A    between atoms: _103  and  _104
REMARK   42  A    between atoms: _103  and  _106
REMARK   43  A    between atoms: _106  and  _107
REMARK   44  A    between atoms: _112  and  _113
REMARK   45  A    between atoms: _116  and  _117
REMARK   46  A    between atoms: _122  and  _124
REMARK   47  A    between atoms: _124  and  _125
REMARK   48  A    between atoms: _124  and  _127
REMARK   49  A    between atoms: _127  and  _128
REMARK   50  A    between atoms: _129  and  ZN_344
REMARK   51  A    between atoms: _133  and  _135
REMARK   52  A    between atoms: _135  and  _136
REMARK   53  A    between atoms: _138  and  _140
REMARK   54  A    between atoms: _140  and  _141
REMARK   55  A    between atoms: _140  and  _143
REMARK   56  A    between atoms: _143  and  _144
REMARK   57  A    between atoms: _144  and  _145
REMARK   58  A    between atoms: _148  and  _150
REMARK   59  A    between atoms: _150  and  _151
REMARK   60  A    between atoms: _150  and  _153
REMARK   61  A    between atoms: _153  and  _154
REMARK   62  A    between atoms: _154  and  _155
REMARK   63  A    between atoms: _158  and  _160
REMARK   64  A    between atoms: _160  and  _161
REMARK   65  A    between atoms: _160  and  _163
REMARK   66  A    between atoms: _163  and  _164
REMARK   67  A    between atoms: _168  and  ZN_344
REMARK   68  A    between atoms: _169  and  _171
REMARK   69  A    between atoms: _171  and  _172
REMARK   70  A    between atoms: _171  and  _174
REMARK   71  A    between atoms: _174  and  _175
REMARK   72  A    between atoms: _178  and  _180
REMARK   73  A    between atoms: _180  and  _181
REMARK   74  A    between atoms: _180  and  _183
REMARK   75  A    between atoms: _183  and  _184
REMARK   76  A    between atoms: _184  and  _185
REMARK   77  A    between atoms: _190  and  _192
REMARK   78  A    between atoms: _192  and  _193
REMARK   79  A    between atoms: _192  and  _195
REMARK   80  A    between atoms: _195  and  _196
REMARK   81  A    between atoms: _201  and  _203
REMARK   82  A    between atoms: _203  and  _204
REMARK   83  A    between atoms: _203  and  _206
REMARK   84  A    between atoms: _206  and  _207
REMARK   85  A    between atoms: _210  and  _212
REMARK   86  A    between atoms: _212  and  _213
REMARK   87  A    between atoms: _212  and  _215
REMARK   88  A    between atoms: _215  and  _216
REMARK   89  A    between atoms: _221  and  _222
REMARK   90  A    between atoms: _224  and  _226
REMARK   91  A    between atoms: _226  and  _227
REMARK   92  A    between atoms: _226  and  _229
REMARK   93  A    between atoms: _231  and  _233
REMARK   94  A    between atoms: _233  and  _234
REMARK   95  A    between atoms: _233  and  _236
REMARK   96  A    between atoms: _236  and  _237
REMARK   97  A    between atoms: _241  and  _242
REMARK   98  A    between atoms: _247  and  _249
REMARK   99  A    between atoms: _249  and  _250
REMARK  100  A    between atoms: _249  and  _252
REMARK  101  A    between atoms: _252  and  _253
REMARK  102  A    between atoms: _256  and  _258
REMARK  103  A    between atoms: _258  and  _259
REMARK  104  A    between atoms: _258  and  _261
REMARK  105  A    between atoms: _261  and  _262
REMARK  106  A    between atoms: _265  and  _267
REMARK  107  A    between atoms: _267  and  _268
REMARK  108  A    between atoms: _267  and  _270
REMARK  109  A    between atoms: _270  and  _271
REMARK  110  A    between atoms: _271  and  _272
REMARK  111  A    between atoms: _272  and  ZN_345
REMARK  112  A    between atoms: _274  and  _276
REMARK  113  A    between atoms: _276  and  _277
REMARK  114  A    between atoms: _276  and  _279
REMARK  115  A    between atoms: _279  and  _280
REMARK  116  A    between atoms: _282  and  _284
REMARK  117  A    between atoms: _284  and  _285
REMARK  118  A    between atoms: _289  and  _290
REMARK  119  A    between atoms: _295  and  _297
REMARK  120  A    between atoms: _297  and  _298
REMARK  121  A    between atoms: _297  and  _300
REMARK  122  A    between atoms: _300  and  _301
REMARK  123  A    between atoms: _306  and  _308
REMARK  124  A    between atoms: _308  and  _309
REMARK  125  A    between atoms: _308  and  _311
REMARK  126  A    between atoms: _311  and  _312
REMARK  127  A    between atoms: _312  and  _313
REMARK  128  A    between atoms: _313  and  _314
REMARK  129  A    between atoms: _314  and  _315
REMARK  130  A    between atoms: _319  and  _321
REMARK  131  A    between atoms: _321  and  _322
REMARK  132  A    between atoms: _321  and  _324
REMARK  133  A    between atoms: _326  and  _328
REMARK  134  A    between atoms: _328  and  _329
REMARK  135  A    between atoms: _332  and  _334
REMARK  136  A    between atoms: _334  and  _335
REMARK  137  A    between atoms: _337  and  _339
REMARK  138  A    between atoms: _339  and  _340
REMARK  139  A    between atoms: _339  and  _342
REMARK                            x       y       z     vdW  Elec       q    Type
REMARK                         _______ _______ _______ _____ _____    ______ ____
ROOT
ATOM      1  O   HOH     1      21.164  45.935  67.219  0.00  0.00    +0.000 OA
ENDROOT
TORSDOF 0
REMARK  Name = ../refined-set-2016/2eg7/2eg7_pocket.pdb
REMARK  139 active torsions:
REMARK  status: ('A' for Active; 'I' for Inactive)
REMARK    1  A    between atoms: _1  and  _3
REMARK    2  A    between atoms: _14  and  _17
REMARK    3  A    between atoms: _17  and  _18
REMARK    4  A    between atoms: _23  and  _24
REMARK    5  A    between atoms: _32  and  _34
REMARK    6  A    between atoms: _34  and  _35
REMARK    7  A    between atoms: _34  and  _37
REMARK    8  A    between atoms: _37  and  _38
REMARK    9  A    between atoms: _41  and  _43
REMARK   10  A    between atoms: _43  and  _44
REMARK   11  A    between atoms: _43  and  _46
REMARK   12  A    between atoms: _46  and  _47
REMARK   13  A    between atoms: _47  and  _48
REMARK   14  A    between atoms: _48  and  _49
REMARK   15  A    between atoms: _58  and  _60
REMARK   16  A    between atoms: _60  and  _61
REMARK   17  A    between atoms: _60  and  _63
REMARK   18  A    between atoms: _63  and  _64
REMARK   19  A    between atoms: _64  and  _65
REMARK   20  A    between atoms: _67  and  _69
REMARK   21  A    between atoms: _69  and  _70
REMARK   22  A    between atoms: _69  and  _72
REMARK   23  A    between atoms: _72  and  _73
REMARK   24  A    between atoms: _78  and  _80
REMARK   25  A    between atoms: _80  and  _81
REMARK   26  A    between atoms: _80  and  _83
REMARK   27  A    between atoms: _83  and  _84
REMARK   28  A    between atoms: _87  and  _89
REMARK   29  A    between atoms: _89  and  _90
REMARK   30  A    between atoms: _89  and  _96
REMARK   31  A    between atoms: _90  and  _91
REMARK   32  A    between atoms: _91  and  _92
REMARK   33  A    between atoms: _92  and  _93
REMARK   34  A    between atoms: _93  and  _94
REMARK   35  A    between atoms: _94  and  _98
REMARK   36  A    between atoms: _98  and  _99
REMARK   37  A    between atoms: _98  and  _100
REMARK   38  A    between atoms: _99  and  ZN_344
REMARK   39  A    between atoms: _100  and  ZN_345
REMARK   40  A    between atoms: _101  and  _103
REMARK   41  A    between atoms: _103  and  _104
REMARK   42  A    between atoms: _103  and  _106
REMARK   43  A    between atoms: _106  and  _107
REMARK   44  A    between atoms: _112  and  _113
REMARK   45  A    between atoms: _116  and  _117
REMARK   46  A    between atoms: _122  and  _124
REMARK   47  A    between atoms: _124  and  _125
REMARK   48  A    between atoms: _124  and  _127
REMARK   49  A    between atoms: _127  and  _128
REMARK   50  A    between atoms: _129  and  ZN_344
REMARK   51  A    between atoms: _133  and  _135
REMARK   52  A    between atoms: _135  and  _136
REMARK   53  A    between atoms: _138  and  _140
REMARK   54  A    between atoms: _140  and  _141
REMARK   55  A    between atoms: _140  and  _143
REMARK   56  A    between atoms: _143  and  _144
REMARK   57  A    between atoms: _144  and  _145
REMARK   58  A    between atoms: _148  and  _150
REMARK   59  A    between atoms: _150  and  _151
REMARK   60  A    between atoms: _150  and  _153
REMARK   61  A    between atoms: _153  and  _154
REMARK   62  A    between atoms: _154  and  _155
REMARK   63  A    between atoms: _158  and  _160
REMARK   64  A    between atoms: _160  and  _161
REMARK   65  A    between atoms: _160  and  _163
REMARK   66  A    between atoms: _163  and  _164
REMARK   67  A    between atoms: _168  and  ZN_344
REMARK   68  A    between atoms: _169  and  _171
REMARK   69  A    between atoms: _171  and  _172
REMARK   70  A    between atoms: _171  and  _174
REMARK   71  A    between atoms: _174  and  _175
REMARK   72  A    between atoms: _178  and  _180
REMARK   73  A    between atoms: _180  and  _181
REMARK   74  A    between atoms: _180  and  _183
REMARK   75  A    between atoms: _183  and  _184
REMARK   76  A    between atoms: _184  and  _185
REMARK   77  A    between atoms: _190  and  _192
REMARK   78  A    between atoms: _192  and  _193
REMARK   79  A    between atoms: _192  and  _195
REMARK   80  A    between atoms: _195  and  _196
REMARK   81  A    between atoms: _201  and  _203
REMARK   82  A    between atoms: _203  and  _204
REMARK   83  A    between atoms: _203  and  _206
REMARK   84  A    between atoms: _206  and  _207
REMARK   85  A    between atoms: _210  and  _212
REMARK   86  A    between atoms: _212  and  _213
REMARK   87  A    between atoms: _212  and  _215
REMARK   88  A    between atoms: _215  and  _216
REMARK   89  A    between atoms: _221  and  _222
REMARK   90  A    between atoms: _224  and  _226
REMARK   91  A    between atoms: _226  and  _227
REMARK   92  A    between atoms: _226  and  _229
REMARK   93  A    between atoms: _231  and  _233
REMARK   94  A    between atoms: _233  and  _234
REMARK   95  A    between atoms: _233  and  _236
REMARK   96  A    between atoms: _236  and  _237
REMARK   97  A    between atoms: _241  and  _242
REMARK   98  A    between atoms: _247  and  _249
REMARK   99  A    between atoms: _249  and  _250
REMARK  100  A    between atoms: _249  and  _252
REMARK  101  A    between atoms: _252  and  _253
REMARK  102  A    between atoms: _256  and  _258
REMARK  103  A    between atoms: _258  and  _259
REMARK  104  A    between atoms: _258  and  _261
REMARK  105  A    between atoms: _261  and  _262
REMARK  106  A    between atoms: _265  and  _267
REMARK  107  A    between atoms: _267  and  _268
REMARK  108  A    between atoms: _267  and  _270
REMARK  109  A    between atoms: _270  and  _271
REMARK  110  A    between atoms: _271  and  _272
REMARK  111  A    between atoms: _272  and  ZN_345
REMARK  112  A    between atoms: _274  and  _276
REMARK  113  A    between atoms: _276  and  _277
REMARK  114  A    between atoms: _276  and  _279
REMARK  115  A    between atoms: _279  and  _280
REMARK  116  A    between atoms: _282  and  _284
REMARK  117  A    between atoms: _284  and  _285
REMARK  118  A    between atoms: _289  and  _290
REMARK  119  A    between atoms: _295  and  _297
REMARK  120  A    between atoms: _297  and  _298
REMARK  121  A    between atoms: _297  and  _300
REMARK  122  A    between atoms: _300  and  _301
REMARK  123  A    between atoms: _306  and  _308
REMARK  124  A    between atoms: _308  and  _309
REMARK  125  A    between atoms: _308  and  _311
REMARK  126  A    between atoms: _311  and  _312
REMARK  127  A    between atoms: _312  and  _313
REMARK  128  A    between atoms: _313  and  _314
REMARK  129  A    between atoms: _314  and  _315
REMARK  130  A    between atoms: _319  and  _321
REMARK  131  A    between atoms: _321  and  _322
REMARK  132  A    between atoms: _321  and  _324
REMARK  133  A    between atoms: _326  and  _328
REMARK  134  A    between atoms: _328  and  _329
REMARK  135  A    between atoms: _332  and  _334
REMARK  136  A    between atoms: _334  and  _335
REMARK  137  A    between atoms: _337  and  _339
REMARK  138  A    between atoms: _339  and  _340
REMARK  139  A    between atoms: _339  and  _342
REMARK                            x       y       z     vdW  Elec       q    Type
REMARK                         _______ _______ _______ _____ _____    ______ ____
ROOT
ATOM      1  O   HOH     1      30.657  38.021  66.631  0.00  0.00    +0.000 OA
ENDROOT
TORSDOF 0
REMARK  Name = ../refined-set-2016/2eg7/2eg7_pocket.pdb
REMARK  139 active torsions:
REMARK  status: ('A' for Active; 'I' for Inactive)
REMARK    1  A    between atoms: _1  and  _3
REMARK    2  A    between atoms: _14  and  _17
REMARK    3  A    between atoms: _17  and  _18
REMARK    4  A    between atoms: _23  and  _24
REMARK    5  A    between atoms: _32  and  _34
REMARK    6  A    between atoms: _34  and  _35
REMARK    7  A    between atoms: _34  and  _37
REMARK    8  A    between atoms: _37  and  _38
REMARK    9  A    between atoms: _41  and  _43
REMARK   10  A    between atoms: _43  and  _44
REMARK   11  A    between atoms: _43  and  _46
REMARK   12  A    between atoms: _46  and  _47
REMARK   13  A    between atoms: _47  and  _48
REMARK   14  A    between atoms: _48  and  _49
REMARK   15  A    between atoms: _58  and  _60
REMARK   16  A    between atoms: _60  and  _61
REMARK   17  A    between atoms: _60  and  _63
REMARK   18  A    between atoms: _63  and  _64
REMARK   19  A    between atoms: _64  and  _65
REMARK   20  A    between atoms: _67  and  _69
REMARK   21  A    between atoms: _69  and  _70
REMARK   22  A    between atoms: _69  and  _72
REMARK   23  A    between atoms: _72  and  _73
REMARK   24  A    between atoms: _78  and  _80
REMARK   25  A    between atoms: _80  and  _81
REMARK   26  A    between atoms: _80  and  _83
REMARK   27  A    between atoms: _83  and  _84
REMARK   28  A    between atoms: _87  and  _89
REMARK   29  A    between atoms: _89  and  _90
REMARK   30  A    between atoms: _89  and  _96
REMARK   31  A    between atoms: _90  and  _91
REMARK   32  A    between atoms: _91  and  _92
REMARK   33  A    between atoms: _92  and  _93
REMARK   34  A    between atoms: _93  and  _94
REMARK   35  A    between atoms: _94  and  _98
REMARK   36  A    between atoms: _98  and  _99
REMARK   37  A    between atoms: _98  and  _100
REMARK   38  A    between atoms: _99  and  ZN_344
REMARK   39  A    between atoms: _100  and  ZN_345
REMARK   40  A    between atoms: _101  and  _103
REMARK   41  A    between atoms: _103  and  _104
REMARK   42  A    between atoms: _103  and  _106
REMARK   43  A    between atoms: _106  and  _107
REMARK   44  A    between atoms: _112  and  _113
REMARK   45  A    between atoms: _116  and  _117
REMARK   46  A    between atoms: _122  and  _124
REMARK   47  A    between atoms: _124  and  _125
REMARK   48  A    between atoms: _124  and  _127
REMARK   49  A    between atoms: _127  and  _128
REMARK   50  A    between atoms: _129  and  ZN_344
REMARK   51  A    between atoms: _133  and  _135
REMARK   52  A    between atoms: _135  and  _136
REMARK   53  A    between atoms: _138  and  _140
REMARK   54  A    between atoms: _140  and  _141
REMARK   55  A    between atoms: _140  and  _143
REMARK   56  A    between atoms: _143  and  _144
REMARK   57  A    between atoms: _144  and  _145
REMARK   58  A    between atoms: _148  and  _150
REMARK   59  A    between atoms: _150  and  _151
REMARK   60  A    between atoms: _150  and  _153
REMARK   61  A    between atoms: _153  and  _154
REMARK   62  A    between atoms: _154  and  _155
REMARK   63  A    between atoms: _158  and  _160
REMARK   64  A    between atoms: _160  and  _161
REMARK   65  A    between atoms: _160  and  _163
REMARK   66  A    between atoms: _163  and  _164
REMARK   67  A    between atoms: _168  and  ZN_344
REMARK   68  A    between atoms: _169  and  _171
REMARK   69  A    between atoms: _171  and  _172
REMARK   70  A    between atoms: _171  and  _174
REMARK   71  A    between atoms: _174  and  _175
REMARK   72  A    between atoms: _178  and  _180
REMARK   73  A    between atoms: _180  and  _181
REMARK   74  A    between atoms: _180  and  _183
REMARK   75  A    between atoms: _183  and  _184
REMARK   76  A    between atoms: _184  and  _185
REMARK   77  A    between atoms: _190  and  _192
REMARK   78  A    between atoms: _192  and  _193
REMARK   79  A    between atoms: _192  and  _195
REMARK   80  A    between atoms: _195  and  _196
REMARK   81  A    between atoms: _201  and  _203
REMARK   82  A    between atoms: _203  and  _204
REMARK   83  A    between atoms: _203  and  _206
REMARK   84  A    between atoms: _206  and  _207
REMARK   85  A    between atoms: _210  and  _212
REMARK   86  A    between atoms: _212  and  _213
REMARK   87  A    between atoms: _212  and  _215
REMARK   88  A    between atoms: _215  and  _216
REMARK   89  A    between atoms: _221  and  _222
REMARK   90  A    between atoms: _224  and  _226
REMARK   91  A    between atoms: _226  and  _227
REMARK   92  A    between atoms: _226  and  _229
REMARK   93  A    between atoms: _231  and  _233
REMARK   94  A    between atoms: _233  and  _234
REMARK   95  A    between atoms: _233  and  _236
REMARK   96  A    between atoms: _236  and  _237
REMARK   97  A    between atoms: _241  and  _242
REMARK   98  A    between atoms: _247  and  _249
REMARK   99  A    between atoms: _249  and  _250
REMARK  100  A    between atoms: _249  and  _252
REMARK  101  A    between atoms: _252  and  _253
REMARK  102  A    between atoms: _256  and  _258
REMARK  103  A    between atoms: _258  and  _259
REMARK  104  A    between atoms: _258  and  _261
REMARK  105  A    between atoms: _261  and  _262
REMARK  106  A    between atoms: _265  and  _267
REMARK  107  A    between atoms: _267  and  _268
REMARK  108  A    between atoms: _267  and  _270
REMARK  109  A    between atoms: _270  and  _271
REMARK  110  A    between atoms: _271  and  _272
REMARK  111  A    between atoms: _272  and  ZN_345
REMARK  112  A    between atoms: _274  and  _276
REMARK  113  A    between atoms: _276  and  _277
REMARK  114  A    between atoms: _276  and  _279
REMARK  115  A    between atoms: _279  and  _280
REMARK  116  A    between atoms: _282  and  _284
REMARK  117  A    between atoms: _284  and  _285
REMARK  118  A    between atoms: _289  and  _290
REMARK  119  A    between atoms: _295  and  _297
REMARK  120  A    between atoms: _297  and  _298
REMARK  121  A    between atoms: _297  and  _300
REMARK  122  A    between atoms: _300  and  _301
REMARK  123  A    between atoms: _306  and  _308
REMARK  124  A    between atoms: _308  and  _309
REMARK  125  A    between atoms: _308  and  _311
REMARK  126  A    between atoms: _311  and  _312
REMARK  127  A    between atoms: _312  and  _313
REMARK  128  A    between atoms: _313  and  _314
REMARK  129  A    between atoms: _314  and  _315
REMARK  130  A    between atoms: _319  and  _321
REMARK  131  A    between atoms: _321  and  _322
REMARK  132  A    between atoms: _321  and  _324
REMARK  133  A    between atoms: _326  and  _328
REMARK  134  A    between atoms: _328  and  _329
REMARK  135  A    between atoms: _332  and  _334
REMARK  136  A    between atoms: _334  and  _335
REMARK  137  A    between atoms: _337  and  _339
REMARK  138  A    between atoms: _339  and  _340
REMARK  139  A    between atoms: _339  and  _342
REMARK                            x       y       z     vdW  Elec       q    Type
REMARK                         _______ _______ _______ _____ _____    ______ ____
ROOT
ATOM      1  O   HOH     1      30.632  35.573  66.959  0.00  0.00    +0.000 OA
ENDROOT
TORSDOF 0
