REMARK  Name = ../refined-set-2016/4ggz/4ggz_pocket.pdb
REMARK  192 active torsions:
REMARK  status: ('A' for Active; 'I' for Inactive)
REMARK    1  A    between atoms: _1  and  _3
REMARK    2  A    between atoms: _3  and  _4
REMARK    3  A    between atoms: _3  and  _6
REMARK    4  A    between atoms: _6  and  _7
REMARK    5  A    between atoms: _7  and  _8
REMARK    6  A    between atoms: _8  and  _9
REMARK    7  A    between atoms: _9  and  _10
REMARK    8  A    between atoms: _14  and  _16
REMARK    9  A    between atoms: _16  and  _17
REMARK   10  A    between atoms: _16  and  _19
REMARK   11  A    between atoms: _19  and  _20
REMARK   12  A    between atoms: _25  and  _27
REMARK   13  A    between atoms: _27  and  _28
REMARK   14  A    between atoms: _27  and  _30
REMARK   15  A    between atoms: _30  and  _31
REMARK   16  A    between atoms: _31  and  _32
REMARK   17  A    between atoms: _35  and  _37
REMARK   18  A    between atoms: _37  and  _38
REMARK   19  A    between atoms: _37  and  _40
REMARK   20  A    between atoms: _40  and  _41
REMARK   21  A    between atoms: _41  and  _42
REMARK   22  A    between atoms: _42  and  _43
REMARK   23  A    between atoms: _52  and  _54
REMARK   24  A    between atoms: _54  and  _55
REMARK   25  A    between atoms: _57  and  _59
REMARK   26  A    between atoms: _59  and  _60
REMARK   27  A    between atoms: _59  and  _62
REMARK   28  A    between atoms: _62  and  _63
REMARK   29  A    between atoms: _65  and  _67
REMARK   30  A    between atoms: _67  and  _68
REMARK   31  A    between atoms: _67  and  _70
REMARK   32  A    between atoms: _70  and  _71
REMARK   33  A    between atoms: _71  and  _72
REMARK   34  A    between atoms: _75  and  _77
REMARK   35  A    between atoms: _77  and  _78
REMARK   36  A    between atoms: _77  and  _80
REMARK   37  A    between atoms: _80  and  _81
REMARK   38  A    between atoms: _87  and  _89
REMARK   39  A    between atoms: _89  and  _90
REMARK   40  A    between atoms: _89  and  _92
REMARK   41  A    between atoms: _92  and  _93
REMARK   42  A    between atoms: _96  and  _98
REMARK   43  A    between atoms: _98  and  _99
REMARK   44  A    between atoms: _98  and  _101
REMARK   45  A    between atoms: _101  and  _102
REMARK   46  A    between atoms: _107  and  _109
REMARK   47  A    between atoms: _109  and  _110
REMARK   48  A    between atoms: _109  and  _112
REMARK   49  A    between atoms: _112  and  _113
REMARK   50  A    between atoms: _118  and  _120
REMARK   51  A    between atoms: _120  and  _121
REMARK   52  A    between atoms: _124  and  _126
REMARK   53  A    between atoms: _126  and  _127
REMARK   54  A    between atoms: _126  and  _129
REMARK   55  A    between atoms: _129  and  _130
REMARK   56  A    between atoms: _130  and  _131
REMARK   57  A    between atoms: _136  and  _138
REMARK   58  A    between atoms: _138  and  _139
REMARK   59  A    between atoms: _141  and  _143
REMARK   60  A    between atoms: _143  and  _144
REMARK   61  A    between atoms: _143  and  _146
REMARK   62  A    between atoms: _146  and  _147
REMARK   63  A    between atoms: _153  and  _155
REMARK   64  A    between atoms: _155  and  _156
REMARK   65  A    between atoms: _159  and  _161
REMARK   66  A    between atoms: _161  and  _162
REMARK   67  A    between atoms: _161  and  _164
REMARK   68  A    between atoms: _164  and  _165
REMARK   69  A    between atoms: _165  and  _259
REMARK   70  A    between atoms: _166  and  _168
REMARK   71  A    between atoms: _168  and  _169
REMARK   72  A    between atoms: _168  and  _171
REMARK   73  A    between atoms: _171  and  _172
REMARK   74  A    between atoms: _172  and  _173
REMARK   75  A    between atoms: _178  and  _180
REMARK   76  A    between atoms: _180  and  _181
REMARK   77  A    between atoms: _183  and  _185
REMARK   78  A    between atoms: _185  and  _186
REMARK   79  A    between atoms: _185  and  _188
REMARK   80  A    between atoms: _188  and  _189
REMARK   81  A    between atoms: _192  and  _194
REMARK   82  A    between atoms: _194  and  _195
REMARK   83  A    between atoms: _194  and  _197
REMARK   84  A    between atoms: _197  and  _198
REMARK   85  A    between atoms: _203  and  _204
REMARK   86  A    between atoms: _206  and  _208
REMARK   87  A    between atoms: _208  and  _209
REMARK   88  A    between atoms: _208  and  _211
REMARK   89  A    between atoms: _214  and  _216
REMARK   90  A    between atoms: _216  and  _217
REMARK   91  A    between atoms: _216  and  _219
REMARK   92  A    between atoms: _219  and  _220
REMARK   93  A    between atoms: _223  and  _225
REMARK   94  A    between atoms: _225  and  _226
REMARK   95  A    between atoms: _225  and  _228
REMARK   96  A    between atoms: _228  and  _229
REMARK   97  A    between atoms: _235  and  _237
REMARK   98  A    between atoms: _237  and  _238
REMARK   99  A    between atoms: _241  and  _243
REMARK  100  A    between atoms: _243  and  _244
REMARK  101  A    between atoms: _243  and  _246
REMARK  102  A    between atoms: _246  and  _247
REMARK  103  A    between atoms: _247  and  _248
REMARK  104  A    between atoms: _253  and  _255
REMARK  105  A    between atoms: _255  and  _256
REMARK  106  A    between atoms: _255  and  _258
REMARK  107  A    between atoms: _258  and  _259
REMARK  108  A    between atoms: _260  and  _262
REMARK  109  A    between atoms: _262  and  _263
REMARK  110  A    between atoms: _262  and  _265
REMARK  111  A    between atoms: _265  and  _266
REMARK  112  A    between atoms: _271  and  _273
REMARK  113  A    between atoms: _273  and  _274
REMARK  114  A    between atoms: _273  and  _276
REMARK  115  A    between atoms: _276  and  _277
REMARK  116  A    between atoms: _279  and  _281
REMARK  117  A    between atoms: _281  and  _282
REMARK  118  A    between atoms: _281  and  _284
REMARK  119  A    between atoms: _284  and  _285
REMARK  120  A    between atoms: _291  and  _293
REMARK  121  A    between atoms: _293  and  _294
REMARK  122  A    between atoms: _293  and  _296
REMARK  123  A    between atoms: _296  and  _297
REMARK  124  A    between atoms: _300  and  _302
REMARK  125  A    between atoms: _302  and  _303
REMARK  126  A    between atoms: _302  and  _305
REMARK  127  A    between atoms: _305  and  _306
REMARK  128  A    between atoms: _306  and  _307
REMARK  129  A    between atoms: _307  and  _308
REMARK  130  A    between atoms: _317  and  _319
REMARK  131  A    between atoms: _319  and  _320
REMARK  132  A    between atoms: _319  and  _322
REMARK  133  A    between atoms: _322  and  _323
REMARK  134  A    between atoms: _333  and  _335
REMARK  135  A    between atoms: _335  and  _336
REMARK  136  A    between atoms: _335  and  _338
REMARK  137  A    between atoms: _338  and  _339
REMARK  138  A    between atoms: _342  and  _344
REMARK  139  A    between atoms: _344  and  _345
REMARK  140  A    between atoms: _344  and  _347
REMARK  141  A    between atoms: _347  and  _348
REMARK  142  A    between atoms: _350  and  _352
REMARK  143  A    between atoms: _352  and  _353
REMARK  144  A    between atoms: _352  and  _355
REMARK  145  A    between atoms: _355  and  _356
REMARK  146  A    between atoms: _366  and  _368
REMARK  147  A    between atoms: _368  and  _369
REMARK  148  A    between atoms: _368  and  _371
REMARK  149  A    between atoms: _371  and  _372
REMARK  150  A    between atoms: _375  and  _377
REMARK  151  A    between atoms: _377  and  _378
REMARK  152  A    between atoms: _377  and  _380
REMARK  153  A    between atoms: _380  and  _381
REMARK  154  A    between atoms: _384  and  _386
REMARK  155  A    between atoms: _386  and  _387
REMARK  156  A    between atoms: _386  and  _389
REMARK  157  A    between atoms: _389  and  _390
REMARK  158  A    between atoms: _396  and  _398
REMARK  159  A    between atoms: _398  and  _399
REMARK  160  A    between atoms: _398  and  _401
REMARK  161  A    between atoms: _401  and  _402
REMARK  162  A    between atoms: _407  and  _408
REMARK  163  A    between atoms: _410  and  _412
REMARK  164  A    between atoms: _412  and  _413
REMARK  165  A    between atoms: _412  and  _415
REMARK  166  A    between atoms: _418  and  _420
REMARK  167  A    between atoms: _420  and  _421
REMARK  168  A    between atoms: _420  and  _423
REMARK  169  A    between atoms: _423  and  _424
REMARK  170  A    between atoms: _427  and  _429
REMARK  171  A    between atoms: _429  and  _430
REMARK  172  A    between atoms: _429  and  _432
REMARK  173  A    between atoms: _432  and  _433
REMARK  174  A    between atoms: _433  and  _434
REMARK  175  A    between atoms: _434  and  _435
REMARK  176  A    between atoms: _435  and  _436
REMARK  177  A    between atoms: _440  and  _442
REMARK  178  A    between atoms: _442  and  _443
REMARK  179  A    between atoms: _445  and  _447
REMARK  180  A    between atoms: _447  and  _448
REMARK  181  A    between atoms: _450  and  _452
REMARK  182  A    between atoms: _452  and  _453
REMARK  183  A    between atoms: _452  and  _455
REMARK  184  A    between atoms: _455  and  _456
REMARK  185  A    between atoms: _459  and  _461
REMARK  186  A    between atoms: _461  and  _462
REMARK  187  A    between atoms: _461  and  _464
REMARK  188  A    between atoms: _464  and  _465
REMARK  189  A    between atoms: _468  and  _470
REMARK  190  A    between atoms: _470  and  _471
REMARK  191  A    between atoms: _470  and  _473
REMARK  192  A    between atoms: _473  and  _474
REMARK                            x       y       z     vdW  Elec       q    Type
REMARK                         _______ _______ _______ _____ _____    ______ ____
ROOT
ATOM      1  CA  ARG A   4      42.133  -1.764  -5.560  0.00  0.00    +0.149 C 
ENDROOT
BRANCH   1   2
ATOM      2  C   ARG A   4      40.660  -1.358  -5.710  0.00  0.00    +0.241 C 
ATOM      3  N   GLY A   5      40.313  -0.202  -5.132  0.00  0.00    -0.295 N 
ATOM      4  H   GLY A   5      41.043   0.324  -4.610  0.00  0.00    +0.150 HD
ATOM      5  O   ARG A   4      39.858  -2.087  -6.314  0.00  0.00    -0.273 OA
BRANCH   3   6
ATOM      6  CA  GLY A   5      38.985   0.356  -5.192  0.00  0.00    +0.176 C 
BRANCH   6   7
ATOM      7  C   GLY A   5      38.218   0.206  -3.880  0.00  0.00    +0.243 C 
ATOM      8  N   SER A   6      38.848  -0.422  -2.903  0.00  0.00    -0.295 N 
ATOM      9  H   SER A   6      39.842  -0.706  -3.019  0.00  0.00    +0.150 HD
ATOM     10  O   GLY A   5      37.028   0.560  -3.804  0.00  0.00    -0.273 OA
BRANCH   8  11
ATOM     11  CA  SER A   6      38.126  -0.720  -1.635  0.00  0.00    +0.178 C 
BRANCH  11  12
ATOM     12  C   SER A   6      37.960   0.541  -0.804  0.00  0.00    +0.243 C 
ATOM     13  N   GLU A   7      36.983   0.565   0.136  0.00  0.00    -0.298 N 
ATOM     14  H   GLU A   7      36.507  -0.321   0.399  0.00  0.00    +0.150 HD
ATOM     15  O   SER A   6      38.768   1.455  -0.945  0.00  0.00    -0.273 OA
BRANCH  13  16
ATOM     16  CA  GLU A   7      36.582   1.824   0.794  0.00  0.00    +0.137 C 
BRANCH  16  17
ATOM     17  C   GLU A   7      36.728   1.620   2.291  0.00  0.00    +0.227 C 
ATOM     18  O   GLU A   7      36.306   0.583   2.776  0.00  0.00    -0.286 OA
ENDBRANCH  16  17
BRANCH  16  19
ATOM     19  CB  GLU A   7      35.079   2.125   0.576  0.00  0.00    +0.039 C 
BRANCH  19  20
ATOM     20  CG  GLU A   7      34.479   1.971  -0.827  0.00  0.00    +0.116 C 
BRANCH  20  21
ATOM     21  CD  GLU A   7      32.941   2.072  -0.822  0.00  0.00    +0.365 C 
ATOM     22  OE2 GLU A   7      32.399   3.083  -0.306  0.00  0.00    -0.246 OA
ATOM     23  OE1 GLU A   7      32.248   1.136  -1.314  0.00  0.00    -0.246 OA
ENDBRANCH  20  21
ENDBRANCH  19  20
ENDBRANCH  16  19
ENDBRANCH  13  16
ENDBRANCH  11  12
BRANCH  11  24
ATOM     24  CB  SER A   6      38.855  -1.796  -0.845  0.00  0.00    +0.166 C 
BRANCH  24  25
ATOM     25  OG  SER A   6      38.789  -3.077  -1.522  0.00  0.00    -0.380 OA
ATOM     26  H   SER A   6      39.270  -3.757  -0.987  0.00  0.00    +0.211 HD
ENDBRANCH  24  25
ENDBRANCH  11  24
ENDBRANCH   8  11
ENDBRANCH   6   7
ENDBRANCH   3   6
ENDBRANCH   1   2
BRANCH   1  28
ATOM     27  C   GLU A   3      43.506   0.236  -5.811  0.00  0.00    +0.241 C 
ATOM     28  N   ARG A   4      42.924  -0.655  -5.011  0.00  0.00    -0.297 N 
ATOM     29  H   ARG A   4      43.031  -0.564  -3.981  0.00  0.00    +0.150 HD
ATOM     30  O   GLU A   3      43.392   0.203  -7.066  0.00  0.00    -0.273 OA
BRANCH  27  31
ATOM     31  CA  GLU A   3      44.332   1.312  -5.132  0.00  0.00    +0.149 C 
BRANCH  31  33
ATOM     32  C   ASN A   2      42.909   1.863  -3.237  0.00  0.00    +0.241 C 
ATOM     33  N   GLU A   3      44.077   1.398  -3.674  0.00  0.00    -0.297 N 
ATOM     34  H   GLU A   3      44.806   1.097  -2.997  0.00  0.00    +0.150 HD
ATOM     35  O   ASN A   2      41.956   2.152  -3.969  0.00  0.00    -0.273 OA
BRANCH  32  36
ATOM     36  CA  ASN A   2      42.783   2.065  -1.735  0.00  0.00    +0.158 C 
BRANCH  36  39
ATOM     37  C   LYS A   1      41.291   3.846  -1.117  0.00  0.00    +0.238 C 
ATOM     38  O   LYS A   1      42.246   4.652  -1.116  0.00  0.00    -0.274 OA
ATOM     39  N   ASN A   2      41.433   2.546  -1.422  0.00  0.00    -0.297 N 
ATOM     40  H   ASN A   2      40.615   1.903  -1.436  0.00  0.00    +0.150 HD
BRANCH  37  41
ATOM     41  CA  LYS A   1      39.916   4.359  -0.767  0.00  0.00    +0.145 C 
BRANCH  41  42
ATOM     42  N   LYS A   1      40.098   5.452   0.182  0.00  0.00    -0.238 NA
ATOM     43  H   LYS A   1      40.794   6.201  -0.010  0.00  0.00    +0.142 HD
ENDBRANCH  41  42
BRANCH  41  44
ATOM     44  CB  LYS A   1      39.287   4.904  -2.043  0.00  0.00    +0.026 C 
BRANCH  44  45
ATOM     45  CG  LYS A   1      37.813   5.262  -1.988  0.00  0.00    -0.000 C 
BRANCH  45  46
ATOM     46  CD  LYS A   1      37.328   5.414  -3.429  0.00  0.00    -0.024 C 
BRANCH  46  47
ATOM     47  CE  LYS A   1      38.395   4.743  -4.330  0.00  0.00    -0.086 C 
BRANCH  47  48
ATOM     48  NZ  LYS A   1      38.165   4.788  -5.805  0.00  0.00    +0.380 N 
ATOM     49  HZ1 LYS A   1      37.269   4.310  -6.030  0.00  0.00    -0.089 HD
ATOM     50  HZ2 LYS A   1      38.119   5.779  -6.117  0.00  0.00    -0.089 HD
ATOM     51  HZ3 LYS A   1      38.948   4.306  -6.292  0.00  0.00    -0.089 HD
ENDBRANCH  47  48
ENDBRANCH  46  47
ENDBRANCH  45  46
ENDBRANCH  44  45
ENDBRANCH  41  44
ENDBRANCH  37  41
ENDBRANCH  36  39
BRANCH  36  52
ATOM     52  CB  ASN A   2      43.219   0.832  -0.950  0.00  0.00    +0.114 C 
BRANCH  52  53
ATOM     53  CG  ASN A   2      42.425  -0.410  -1.271  0.00  0.00    +0.222 C 
ATOM     54  ND2 ASN A   2      42.397  -1.384  -0.304  0.00  0.00    -0.329 N 
ATOM     55 HD21 ASN A   2      42.914  -1.247   0.588  0.00  0.00    +0.145 HD
ATOM     56 HD22 ASN A   2      41.858  -2.259  -0.463  0.00  0.00    +0.145 HD
ATOM     57  OD1 ASN A   2      41.840  -0.513  -2.334  0.00  0.00    -0.275 OA
ENDBRANCH  52  53
ENDBRANCH  36  52
ENDBRANCH  32  36
ENDBRANCH  31  33
BRANCH  31  58
ATOM     58  CB  GLU A   3      45.804   1.071  -5.442  0.00  0.00    +0.041 C 
BRANCH  58  59
ATOM     59  CG  GLU A   3      46.749   2.142  -4.924  0.00  0.00    +0.116 C 
BRANCH  59  60
ATOM     60  CD  GLU A   3      48.234   1.758  -5.095  0.00  0.00    +0.365 C 
ATOM     61  OE2 GLU A   3      48.576   0.546  -5.117  0.00  0.00    -0.246 OA
ATOM     62  OE1 GLU A   3      49.063   2.678  -5.205  0.00  0.00    -0.246 OA
ENDBRANCH  59  60
ENDBRANCH  58  59
ENDBRANCH  31  58
ENDBRANCH  27  31
ENDBRANCH   1  28
BRANCH   1  63
ATOM     63  CB  ARG A   4      42.244  -2.964  -4.609  0.00  0.00    +0.033 C 
BRANCH  63  64
ATOM     64  CG  ARG A   4      43.657  -3.322  -4.235  0.00  0.00    +0.045 C 
BRANCH  64  65
ATOM     65  CD  ARG A   4      43.686  -4.483  -3.287  0.00  0.00    +0.174 C 
BRANCH  65  66
ATOM     66  NE  ARG A   4      45.043  -4.677  -2.791  0.00  0.00    -0.265 N 
ATOM     67  HE  ARG A   4      45.445  -3.955  -2.159  0.00  0.00    +0.259 HD
ATOM     68  CZ  ARG A   4      45.787  -5.721  -3.102  0.00  0.00    +0.342 C 
ATOM     69  NH2 ARG A   4      47.020  -5.833  -2.610  0.00  0.00    -0.292 N 
ATOM     70 HH21 ARG A   4      47.397  -5.097  -1.980  0.00  0.00    +0.255 HD
ATOM     71 HH22 ARG A   4      47.605  -6.657  -2.856  0.00  0.00    +0.255 HD
ATOM     72  NH1 ARG A   4      45.302  -6.648  -3.909  0.00  0.00    -0.292 N 
ATOM     73 HH11 ARG A   4      45.882  -7.474  -4.159  0.00  0.00    +0.255 HD
ATOM     74 HH12 ARG A   4      44.341  -6.551  -4.294  0.00  0.00    +0.255 HD
ENDBRANCH  65  66
ENDBRANCH  64  65
ENDBRANCH  63  64
ENDBRANCH   1  63
TORSDOF 33
REMARK  Name = ../refined-set-2016/4ggz/4ggz_pocket.pdb
REMARK  192 active torsions:
REMARK  status: ('A' for Active; 'I' for Inactive)
REMARK    1  A    between atoms: _1  and  _3
REMARK    2  A    between atoms: _3  and  _4
REMARK    3  A    between atoms: _3  and  _6
REMARK    4  A    between atoms: _6  and  _7
REMARK    5  A    between atoms: _7  and  _8
REMARK    6  A    between atoms: _8  and  _9
REMARK    7  A    between atoms: _9  and  _10
REMARK    8  A    between atoms: _14  and  _16
REMARK    9  A    between atoms: _16  and  _17
REMARK   10  A    between atoms: _16  and  _19
REMARK   11  A    between atoms: _19  and  _20
REMARK   12  A    between atoms: _25  and  _27
REMARK   13  A    between atoms: _27  and  _28
REMARK   14  A    between atoms: _27  and  _30
REMARK   15  A    between atoms: _30  and  _31
REMARK   16  A    between atoms: _31  and  _32
REMARK   17  A    between atoms: _35  and  _37
REMARK   18  A    between atoms: _37  and  _38
REMARK   19  A    between atoms: _37  and  _40
REMARK   20  A    between atoms: _40  and  _41
REMARK   21  A    between atoms: _41  and  _42
REMARK   22  A    between atoms: _42  and  _43
REMARK   23  A    between atoms: _52  and  _54
REMARK   24  A    between atoms: _54  and  _55
REMARK   25  A    between atoms: _57  and  _59
REMARK   26  A    between atoms: _59  and  _60
REMARK   27  A    between atoms: _59  and  _62
REMARK   28  A    between atoms: _62  and  _63
REMARK   29  A    between atoms: _65  and  _67
REMARK   30  A    between atoms: _67  and  _68
REMARK   31  A    between atoms: _67  and  _70
REMARK   32  A    between atoms: _70  and  _71
REMARK   33  A    between atoms: _71  and  _72
REMARK   34  A    between atoms: _75  and  _77
REMARK   35  A    between atoms: _77  and  _78
REMARK   36  A    between atoms: _77  and  _80
REMARK   37  A    between atoms: _80  and  _81
REMARK   38  A    between atoms: _87  and  _89
REMARK   39  A    between atoms: _89  and  _90
REMARK   40  A    between atoms: _89  and  _92
REMARK   41  A    between atoms: _92  and  _93
REMARK   42  A    between atoms: _96  and  _98
REMARK   43  A    between atoms: _98  and  _99
REMARK   44  A    between atoms: _98  and  _101
REMARK   45  A    between atoms: _101  and  _102
REMARK   46  A    between atoms: _107  and  _109
REMARK   47  A    between atoms: _109  and  _110
REMARK   48  A    between atoms: _109  and  _112
REMARK   49  A    between atoms: _112  and  _113
REMARK   50  A    between atoms: _118  and  _120
REMARK   51  A    between atoms: _120  and  _121
REMARK   52  A    between atoms: _124  and  _126
REMARK   53  A    between atoms: _126  and  _127
REMARK   54  A    between atoms: _126  and  _129
REMARK   55  A    between atoms: _129  and  _130
REMARK   56  A    between atoms: _130  and  _131
REMARK   57  A    between atoms: _136  and  _138
REMARK   58  A    between atoms: _138  and  _139
REMARK   59  A    between atoms: _141  and  _143
REMARK   60  A    between atoms: _143  and  _144
REMARK   61  A    between atoms: _143  and  _146
REMARK   62  A    between atoms: _146  and  _147
REMARK   63  A    between atoms: _153  and  _155
REMARK   64  A    between atoms: _155  and  _156
REMARK   65  A    between atoms: _159  and  _161
REMARK   66  A    between atoms: _161  and  _162
REMARK   67  A    between atoms: _161  and  _164
REMARK   68  A    between atoms: _164  and  _165
REMARK   69  A    between atoms: _165  and  _259
REMARK   70  A    between atoms: _166  and  _168
REMARK   71  A    between atoms: _168  and  _169
REMARK   72  A    between atoms: _168  and  _171
REMARK   73  A    between atoms: _171  and  _172
REMARK   74  A    between atoms: _172  and  _173
REMARK   75  A    between atoms: _178  and  _180
REMARK   76  A    between atoms: _180  and  _181
REMARK   77  A    between atoms: _183  and  _185
REMARK   78  A    between atoms: _185  and  _186
REMARK   79  A    between atoms: _185  and  _188
REMARK   80  A    between atoms: _188  and  _189
REMARK   81  A    between atoms: _192  and  _194
REMARK   82  A    between atoms: _194  and  _195
REMARK   83  A    between atoms: _194  and  _197
REMARK   84  A    between atoms: _197  and  _198
REMARK   85  A    between atoms: _203  and  _204
REMARK   86  A    between atoms: _206  and  _208
REMARK   87  A    between atoms: _208  and  _209
REMARK   88  A    between atoms: _208  and  _211
REMARK   89  A    between atoms: _214  and  _216
REMARK   90  A    between atoms: _216  and  _217
REMARK   91  A    between atoms: _216  and  _219
REMARK   92  A    between atoms: _219  and  _220
REMARK   93  A    between atoms: _223  and  _225
REMARK   94  A    between atoms: _225  and  _226
REMARK   95  A    between atoms: _225  and  _228
REMARK   96  A    between atoms: _228  and  _229
REMARK   97  A    between atoms: _235  and  _237
REMARK   98  A    between atoms: _237  and  _238
REMARK   99  A    between atoms: _241  and  _243
REMARK  100  A    between atoms: _243  and  _244
REMARK  101  A    between atoms: _243  and  _246
REMARK  102  A    between atoms: _246  and  _247
REMARK  103  A    between atoms: _247  and  _248
REMARK  104  A    between atoms: _253  and  _255
REMARK  105  A    between atoms: _255  and  _256
REMARK  106  A    between atoms: _255  and  _258
REMARK  107  A    between atoms: _258  and  _259
REMARK  108  A    between atoms: _260  and  _262
REMARK  109  A    between atoms: _262  and  _263
REMARK  110  A    between atoms: _262  and  _265
REMARK  111  A    between atoms: _265  and  _266
REMARK  112  A    between atoms: _271  and  _273
REMARK  113  A    between atoms: _273  and  _274
REMARK  114  A    between atoms: _273  and  _276
REMARK  115  A    between atoms: _276  and  _277
REMARK  116  A    between atoms: _279  and  _281
REMARK  117  A    between atoms: _281  and  _282
REMARK  118  A    between atoms: _281  and  _284
REMARK  119  A    between atoms: _284  and  _285
REMARK  120  A    between atoms: _291  and  _293
REMARK  121  A    between atoms: _293  and  _294
REMARK  122  A    between atoms: _293  and  _296
REMARK  123  A    between atoms: _296  and  _297
REMARK  124  A    between atoms: _300  and  _302
REMARK  125  A    between atoms: _302  and  _303
REMARK  126  A    between atoms: _302  and  _305
REMARK  127  A    between atoms: _305  and  _306
REMARK  128  A    between atoms: _306  and  _307
REMARK  129  A    between atoms: _307  and  _308
REMARK  130  A    between atoms: _317  and  _319
REMARK  131  A    between atoms: _319  and  _320
REMARK  132  A    between atoms: _319  and  _322
REMARK  133  A    between atoms: _322  and  _323
REMARK  134  A    between atoms: _333  and  _335
REMARK  135  A    between atoms: _335  and  _336
REMARK  136  A    between atoms: _335  and  _338
REMARK  137  A    between atoms: _338  and  _339
REMARK  138  A    between atoms: _342  and  _344
REMARK  139  A    between atoms: _344  and  _345
REMARK  140  A    between atoms: _344  and  _347
REMARK  141  A    between atoms: _347  and  _348
REMARK  142  A    between atoms: _350  and  _352
REMARK  143  A    between atoms: _352  and  _353
REMARK  144  A    between atoms: _352  and  _355
REMARK  145  A    between atoms: _355  and  _356
REMARK  146  A    between atoms: _366  and  _368
REMARK  147  A    between atoms: _368  and  _369
REMARK  148  A    between atoms: _368  and  _371
REMARK  149  A    between atoms: _371  and  _372
REMARK  150  A    between atoms: _375  and  _377
REMARK  151  A    between atoms: _377  and  _378
REMARK  152  A    between atoms: _377  and  _380
REMARK  153  A    between atoms: _380  and  _381
REMARK  154  A    between atoms: _384  and  _386
REMARK  155  A    between atoms: _386  and  _387
REMARK  156  A    between atoms: _386  and  _389
REMARK  157  A    between atoms: _389  and  _390
REMARK  158  A    between atoms: _396  and  _398
REMARK  159  A    between atoms: _398  and  _399
REMARK  160  A    between atoms: _398  and  _401
REMARK  161  A    between atoms: _401  and  _402
REMARK  162  A    between atoms: _407  and  _408
REMARK  163  A    between atoms: _410  and  _412
REMARK  164  A    between atoms: _412  and  _413
REMARK  165  A    between atoms: _412  and  _415
REMARK  166  A    between atoms: _418  and  _420
REMARK  167  A    between atoms: _420  and  _421
REMARK  168  A    between atoms: _420  and  _423
REMARK  169  A    between atoms: _423  and  _424
REMARK  170  A    between atoms: _427  and  _429
REMARK  171  A    between atoms: _429  and  _430
REMARK  172  A    between atoms: _429  and  _432
REMARK  173  A    between atoms: _432  and  _433
REMARK  174  A    between atoms: _433  and  _434
REMARK  175  A    between atoms: _434  and  _435
REMARK  176  A    between atoms: _435  and  _436
REMARK  177  A    between atoms: _440  and  _442
REMARK  178  A    between atoms: _442  and  _443
REMARK  179  A    between atoms: _445  and  _447
REMARK  180  A    between atoms: _447  and  _448
REMARK  181  A    between atoms: _450  and  _452
REMARK  182  A    between atoms: _452  and  _453
REMARK  183  A    between atoms: _452  and  _455
REMARK  184  A    between atoms: _455  and  _456
REMARK  185  A    between atoms: _459  and  _461
REMARK  186  A    between atoms: _461  and  _462
REMARK  187  A    between atoms: _461  and  _464
REMARK  188  A    between atoms: _464  and  _465
REMARK  189  A    between atoms: _468  and  _470
REMARK  190  A    between atoms: _470  and  _471
REMARK  191  A    between atoms: _470  and  _473
REMARK  192  A    between atoms: _473  and  _474
REMARK                            x       y       z     vdW  Elec       q    Type
REMARK                         _______ _______ _______ _____ _____    ______ ____
ROOT
ATOM      1  CA  CYS A   6      34.016 -15.430   3.529  0.00  0.00    +0.160 C 
ENDROOT
BRANCH   1   2
ATOM      2  C   CYS A   6      34.890 -16.270   4.497  0.00  0.00    +0.242 C 
ATOM      3  N   ASN A   7      34.469 -16.376   5.756  0.00  0.00    -0.297 N 
ATOM      4  H   ASN A   7      33.587 -15.903   6.039  0.00  0.00    +0.150 HD
ATOM      5  O   CYS A   6      35.920 -16.824   4.112  0.00  0.00    -0.273 OA
BRANCH   3   6
ATOM      6  CA  ASN A   7      35.215 -17.137   6.742  0.00  0.00    +0.158 C 
BRANCH   6   7
ATOM      7  C   ASN A   7      36.681 -16.663   6.847  0.00  0.00    +0.241 C 
ATOM      8  O   ASN A   7      37.633 -17.454   6.994  0.00  0.00    -0.273 OA
ATOM      9  N   SER A   8      36.851 -15.353   6.769  0.00  0.00    -0.295 N 
ATOM     10  H   SER A   8      36.022 -14.727   6.727  0.00  0.00    +0.150 HD
BRANCH   9  11
ATOM     11  CA  SER A   8      38.195 -14.780   6.741  0.00  0.00    +0.178 C 
BRANCH  11  12
ATOM     12  C   SER A   8      38.235 -13.464   7.515  0.00  0.00    +0.243 C 
ATOM     13  N   PHE A   9      39.435 -13.035   7.895  0.00  0.00    -0.297 N 
ATOM     14  H   PHE A   9      40.243 -13.688   7.850  0.00  0.00    +0.150 HD
ATOM     15  O   SER A   8      37.178 -12.888   7.813  0.00  0.00    -0.273 OA
BRANCH  13  16
ATOM     16  CA  PHE A   9      39.650 -11.675   8.373  0.00  0.00    +0.153 C 
BRANCH  16  17
ATOM     17  C   PHE A   9      40.988 -11.139   7.885  0.00  0.00    +0.241 C 
ATOM     18  N   THR A  10      41.115  -9.815   7.814  0.00  0.00    -0.295 N 
ATOM     19  H   THR A  10      40.303  -9.209   8.049  0.00  0.00    +0.150 HD
ATOM     20  O   PHE A   9      41.896 -11.916   7.593  0.00  0.00    -0.273 OA
BRANCH  18  21
ATOM     21  CA  THR A  10      42.376  -9.201   7.411  0.00  0.00    +0.176 C 
BRANCH  21  22
ATOM     22  C   THR A  10      42.871  -8.220   8.462  0.00  0.00    +0.243 C 
ATOM     23  O   THR A  10      42.063  -7.518   9.038  0.00  0.00    -0.273 OA
ATOM     24  N   GLN A  11      44.178  -8.215   8.727  0.00  0.00    -0.297 N 
ATOM     25  H   GLN A  11      44.778  -8.950   8.301  0.00  0.00    +0.150 HD
BRANCH  24  26
ATOM     26  CA  GLN A  11      44.799  -7.213   9.596  0.00  0.00    +0.149 C 
BRANCH  26  27
ATOM     27  C   GLN A  11      45.721  -6.335   8.759  0.00  0.00    +0.241 C 
ATOM     28  N   GLY A  12      45.436  -5.023   8.690  0.00  0.00    -0.298 N 
ATOM     29  H   GLY A  12      44.530  -4.689   9.076  0.00  0.00    +0.150 HD
ATOM     30  O   GLN A  11      46.672  -6.865   8.158  0.00  0.00    -0.273 OA
BRANCH  28  31
ATOM     31  CA  GLY A  12      46.353  -4.039   8.090  0.00  0.00    +0.141 C 
BRANCH  31  32
ATOM     32  C   GLY A  12      47.234  -3.368   9.137  0.00  0.00    +0.227 C 
ATOM     33  O   GLY A  12      46.782  -3.098  10.248  0.00  0.00    -0.286 OA
ENDBRANCH  31  32
BRANCH  31  34
ATOM     34  CB  GLY A  12      45.614  -2.892   7.381  0.00  0.00    +0.056 C 
BRANCH  34  35
ATOM     35  CG  GLY A  12      44.884  -3.253   6.115  0.00  0.00    -0.002 A 
ATOM     36  CD2 GLY A  12      43.596  -3.861   6.001  0.00  0.00    +0.013 A 
ATOM     37  CE3 GLY A  12      42.630  -4.296   6.949  0.00  0.00    +0.001 A 
ATOM     38  CZ3 GLY A  12      41.398  -4.902   6.448  0.00  0.00    +0.000 A 
ATOM     39  CH2 GLY A  12      41.148  -4.976   5.054  0.00  0.00    +0.001 A 
ATOM     40  CZ2 GLY A  12      42.081  -4.524   4.126  0.00  0.00    +0.017 A 
ATOM     41  CE2 GLY A  12      43.301  -3.979   4.610  0.00  0.00    +0.056 A 
ATOM     42  NE1 GLY A  12      44.357  -3.455   3.901  0.00  0.00    -0.352 N 
ATOM     43  HE1 GLY A  12      44.412  -3.387   2.865  0.00  0.00    +0.166 HD
ATOM     44  CD1 GLY A  12      45.338  -3.031   4.789  0.00  0.00    +0.068 A 
ENDBRANCH  34  35
ENDBRANCH  31  34
ENDBRANCH  28  31
ENDBRANCH  26  27
BRANCH  26  45
ATOM     45  CB  GLN A  11      45.605  -7.926  10.690  0.00  0.00    +0.033 C 
BRANCH  45  46
ATOM     46  CG  GLN A  11      46.053  -6.990  11.806  0.00  0.00    +0.045 C 
BRANCH  46  47
ATOM     47  CD  GLN A  11      46.603  -7.769  12.983  0.00  0.00    +0.174 C 
BRANCH  47  48
ATOM     48  NE  GLN A  11      46.819  -6.902  14.141  0.00  0.00    -0.265 N 
ATOM     49  HE  GLN A  11      46.043  -6.798  14.825  0.00  0.00    +0.259 HD
ATOM     50  CZ  GLN A  11      47.945  -6.241  14.371  0.00  0.00    +0.342 C 
ATOM     51  NH2 GLN A  11      48.064  -5.491  15.461  0.00  0.00    -0.292 N 
ATOM     52 HH21 GLN A  11      47.274  -5.422  16.134  0.00  0.00    +0.255 HD
ATOM     53 HH22 GLN A  11      48.947  -4.972  15.642  0.00  0.00    +0.255 HD
ATOM     54  NH1 GLN A  11      48.954  -6.320  13.512  0.00  0.00    -0.292 N 
ATOM     55 HH11 GLN A  11      49.836  -5.800  13.696  0.00  0.00    +0.255 HD
ATOM     56 HH12 GLN A  11      48.863  -6.902  12.655  0.00  0.00    +0.255 HD
ENDBRANCH  47  48
ENDBRANCH  46  47
ENDBRANCH  45  46
ENDBRANCH  26  45
ENDBRANCH  24  26
ENDBRANCH  21  22
BRANCH  21  57
ATOM     57  CB  THR A  10      42.167  -8.494   6.067  0.00  0.00    +0.137 C 
ATOM     58  CG2 THR A  10      43.450  -7.778   5.595  0.00  0.00    +0.034 C 
BRANCH  57  59
ATOM     59  OG1 THR A  10      41.785  -9.480   5.109  0.00  0.00    -0.382 OA
ATOM     60  HG1 THR A  10      41.644  -9.047   4.230  0.00  0.00    +0.210 HD
ENDBRANCH  57  59
ENDBRANCH  21  57
ENDBRANCH  18  21
ENDBRANCH  16  17
BRANCH  16  61
ATOM     61  CB  PHE A   9      39.530 -11.583   9.914  0.00  0.00    +0.055 C 
BRANCH  61  62
ATOM     62  CG  PHE A   9      40.657 -12.267  10.680  0.00  0.00    -0.020 A 
ATOM     63  CD2 PHE A   9      41.768 -11.541  11.081  0.00  0.00    -0.004 A 
ATOM     64  CE2 PHE A   9      42.800 -12.145  11.790  0.00  0.00    -0.000 A 
ATOM     65  CZ  PHE A   9      42.721 -13.481  12.089  0.00  0.00    -0.000 A 
ATOM     66  CE1 PHE A   9      41.632 -14.231  11.711  0.00  0.00    -0.000 A 
ATOM     67  CD1 PHE A   9      40.594 -13.636  11.004  0.00  0.00    -0.004 A 
ENDBRANCH  61  62
ENDBRANCH  16  61
ENDBRANCH  13  16
ENDBRANCH  11  12
BRANCH  11  68
ATOM     68  CB  SER A   8      38.630 -14.589   5.284  0.00  0.00    +0.166 C 
BRANCH  68  69
ATOM     69  OG  SER A   8      37.900 -13.547   4.654  0.00  0.00    -0.380 OA
ATOM     70  H   SER A   8      38.206 -13.451   3.717  0.00  0.00    +0.211 HD
ENDBRANCH  68  69
ENDBRANCH  11  68
ENDBRANCH   9  11
ENDBRANCH   6   7
BRANCH   6  71
ATOM     71  CB  ASN A   7      35.135 -18.633   6.422  0.00  0.00    +0.114 C 
BRANCH  71  72
ATOM     72  CG  ASN A   7      35.159 -19.505   7.663  0.00  0.00    +0.222 C 
ATOM     73  ND2 ASN A   7      35.318 -18.887   8.842  0.00  0.00    -0.329 N 
ATOM     74 HD21 ASN A   7      35.371 -19.445   9.718  0.00  0.00    +0.145 HD
ATOM     75 HD22 ASN A   7      35.388 -17.850   8.880  0.00  0.00    +0.145 HD
ATOM     76  OD1 ASN A   7      35.070 -20.739   7.560  0.00  0.00    -0.275 OA
ENDBRANCH  71  72
ENDBRANCH   6  71
ENDBRANCH   3   6
ENDBRANCH   1   2
BRANCH   1  77
ATOM     77  N   CYS A   6      32.862 -14.825   4.210  0.00  0.00    -0.296 N 
ATOM     78  H   CYS A   6      33.038 -14.051   4.882  0.00  0.00    +0.150 HD
ATOM     79  C   GLN A   5      31.603 -15.215   4.013  0.00  0.00    +0.241 C 
ATOM     80  O   GLN A   5      31.301 -16.169   3.296  0.00  0.00    -0.273 OA
BRANCH  79  81
ATOM     81  CA  GLN A   5      30.516 -14.417   4.767  0.00  0.00    +0.149 C 
BRANCH  81  82
ATOM     82  N   GLN A   5      31.076 -13.555   5.808  0.00  0.00    -0.297 N 
ATOM     83  C   ALA A   4      31.590 -14.097   6.902  0.00  0.00    +0.241 C 
ATOM     84  O   ALA A   4      31.758 -15.300   7.004  0.00  0.00    -0.273 OA
ATOM     85  H   GLN A   5      31.071 -12.522   5.690  0.00  0.00    +0.150 HD
BRANCH  83  86
ATOM     86  CA  ALA A   4      32.008 -13.153   8.023  0.00  0.00    +0.149 C 
ATOM     87  CB  ALA A   4      30.787 -12.706   8.845  0.00  0.00    +0.031 C 
BRANCH  86  88
ATOM     88  N   ALA A   4      32.700 -12.001   7.507  0.00  0.00    -0.297 N 
ATOM     89  H   ALA A   4      32.348 -11.046   7.723  0.00  0.00    +0.150 HD
ATOM     90  C   PHE A   3      33.785 -12.151   6.757  0.00  0.00    +0.241 C 
ATOM     91  O   PHE A   3      34.163 -13.246   6.345  0.00  0.00    -0.273 OA
BRANCH  90  92
ATOM     92  CA  PHE A   3      34.568 -10.884   6.491  0.00  0.00    +0.153 C 
BRANCH  92  93
ATOM     93  N   PHE A   3      35.460 -10.671   7.611  0.00  0.00    -0.297 N 
ATOM     94  C   THR A   2      35.179  -9.835   8.621  0.00  0.00    +0.243 C 
ATOM     95  O   THR A   2      34.139  -9.152   8.680  0.00  0.00    -0.273 OA
ATOM     96  H   PHE A   3      36.361 -11.191   7.633  0.00  0.00    +0.150 HD
BRANCH  94  97
ATOM     97  CA  THR A   2      36.231  -9.699   9.715  0.00  0.00    +0.176 C 
BRANCH  97  98
ATOM     98  N   THR A   2      36.715  -8.316   9.787  0.00  0.00    -0.295 N 
ATOM     99  H   THR A   2      36.145  -7.627  10.317  0.00  0.00    +0.150 HD
ATOM    100  C   VAL A   1      37.839  -7.889   9.216  0.00  0.00    +0.238 C 
ATOM    101  O   VAL A   1      38.597  -8.616   8.561  0.00  0.00    -0.274 OA
BRANCH 100 102
ATOM    102  CA  VAL A   1      38.133  -6.397   9.347  0.00  0.00    +0.145 C 
BRANCH 102 103
ATOM    103  CB  VAL A   1      37.978  -5.750   7.932  0.00  0.00    +0.025 C 
ATOM    104  CG2 VAL A   1      38.331  -4.258   7.951  0.00  0.00    +0.002 C 
ATOM    105  CG1 VAL A   1      36.537  -5.921   7.461  0.00  0.00    +0.002 C 
ENDBRANCH 102 103
BRANCH 102 106
ATOM    106  N   VAL A   1      39.456  -6.234   9.895  0.00  0.00    -0.238 NA
ATOM    107  H   VAL A   1      40.241  -6.769   9.470  0.00  0.00    +0.142 HD
ENDBRANCH 102 106
ENDBRANCH 100 102
ENDBRANCH  97  98
BRANCH  97 108
ATOM    108  CB  THR A   2      35.631 -10.122  11.080  0.00  0.00    +0.137 C 
ATOM    109  CG2 THR A   2      35.204 -11.594  11.071  0.00  0.00    +0.034 C 
BRANCH 108 110
ATOM    110  OG1 THR A   2      36.603  -9.898  12.099  0.00  0.00    -0.382 OA
ATOM    111  HG1 THR A   2      36.228 -10.166  12.975  0.00  0.00    +0.210 HD
ENDBRANCH 108 110
ENDBRANCH  97 108
ENDBRANCH  94  97
ENDBRANCH  92  93
BRANCH  92 112
ATOM    112  CB  PHE A   3      35.378 -10.991   5.185  0.00  0.00    +0.055 C 
BRANCH 112 113
ATOM    113  CG  PHE A   3      36.220  -9.800   4.903  0.00  0.00    -0.020 A 
ATOM    114  CD2 PHE A   3      37.564  -9.793   5.282  0.00  0.00    -0.004 A 
ATOM    115  CE2 PHE A   3      38.383  -8.682   5.036  0.00  0.00    -0.000 A 
ATOM    116  CZ  PHE A   3      37.845  -7.569   4.374  0.00  0.00    -0.000 A 
ATOM    117  CE1 PHE A   3      36.500  -7.568   3.955  0.00  0.00    -0.000 A 
ATOM    118  CD1 PHE A   3      35.696  -8.695   4.226  0.00  0.00    -0.004 A 
ENDBRANCH 112 113
ENDBRANCH  92 112
ENDBRANCH  90  92
ENDBRANCH  86  88
ENDBRANCH  83  86
ENDBRANCH  81  82
BRANCH  81 119
ATOM    119  CB  GLN A   5      29.621 -13.598   3.827  0.00  0.00    +0.039 C 
BRANCH 119 120
ATOM    120  CG  GLN A   5      28.160 -13.477   4.307  0.00  0.00    +0.087 C 
BRANCH 120 121
ATOM    121  CD  GLN A   5      27.979 -12.824   5.687  0.00  0.00    +0.219 C 
ATOM    122  NE2 GLN A   5      27.440 -13.590   6.641  0.00  0.00    -0.329 N 
ATOM    123 HE21 GLN A   5      27.270 -13.197   7.589  0.00  0.00    +0.145 HD
ATOM    124 HE22 GLN A   5      27.191 -14.578   6.435  0.00  0.00    +0.145 HD
ATOM    125  OE1 GLN A   5      28.292 -11.641   5.886  0.00  0.00    -0.275 OA
ENDBRANCH 120 121
ENDBRANCH 119 120
ENDBRANCH  81 119
ENDBRANCH  79  81
ENDBRANCH   1  77
BRANCH   1 126
ATOM    126  CB  CYS A   6      34.830 -14.321   2.849  0.00  0.00    +0.098 C 
BRANCH 126 127
ATOM    127  SG  CYS A   6      33.948 -13.501   1.426  0.00  0.00    -0.080 S 
BRANCH 127 128
ATOM    128  SG  THR A  10      32.855 -11.858   2.179  0.00  0.00    -0.080 S 
BRANCH 128 129
ATOM    129  CB  THR A  10      33.243 -10.391   1.157  0.00  0.00    +0.098 C 
BRANCH 129 130
ATOM    130  CA  THR A  10      32.614 -10.355  -0.233  0.00  0.00    +0.160 C 
BRANCH 130 131
ATOM    131  C   THR A  10      32.615  -8.920  -0.804  0.00  0.00    +0.242 C 
ATOM    132  O   THR A  10      32.691  -7.935  -0.068  0.00  0.00    -0.273 OA
ATOM    133  N   GLN A  11      32.536  -8.816  -2.125  0.00  0.00    -0.297 N 
ATOM    134  H   GLN A  11      32.491  -9.687  -2.692  0.00  0.00    +0.150 HD
BRANCH 133 135
ATOM    135  CA  GLN A  11      32.510  -7.530  -2.814  0.00  0.00    +0.149 C 
BRANCH 135 136
ATOM    136  C   GLN A  11      31.253  -6.744  -2.447  0.00  0.00    +0.241 C 
ATOM    137  N   GLY A  12      31.422  -5.499  -2.019  0.00  0.00    -0.295 N 
ATOM    138  H   GLY A  12      32.387  -5.154  -1.842  0.00  0.00    +0.150 HD
ATOM    139  O   GLN A  11      30.141  -7.260  -2.559  0.00  0.00    -0.273 OA
BRANCH 137 140
ATOM    140  CA  GLY A  12      30.317  -4.614  -1.793  0.00  0.00    +0.176 C 
BRANCH 140 141
ATOM    141  C   GLY A  12      29.659  -4.781  -0.437  0.00  0.00    +0.243 C 
ATOM    142  N   ILE A  13      30.178  -5.678   0.393  0.00  0.00    -0.298 N 
ATOM    143  H   ILE A  13      31.033  -6.205   0.121  0.00  0.00    +0.150 HD
ATOM    144  O   GLY A  12      28.676  -4.113  -0.164  0.00  0.00    -0.273 OA
BRANCH 142 145
ATOM    145  CA  ILE A  13      29.541  -5.929   1.705  0.00  0.00    +0.137 C 
BRANCH 145 146
ATOM    146  CB  ILE A  13      29.573  -7.427   2.094  0.00  0.00    +0.026 C 
ATOM    147  CG2 ILE A  13      28.890  -7.610   3.482  0.00  0.00    +0.002 C 
BRANCH 146 148
ATOM    148  CG1 ILE A  13      28.950  -8.297   0.987  0.00  0.00    +0.002 C 
ATOM    149  CD1 ILE A  13      28.962  -9.795   1.321  0.00  0.00    +0.000 C 
ENDBRANCH 146 148
ENDBRANCH 145 146
BRANCH 145 150
ATOM    150  C   ILE A  13      30.253  -5.107   2.759  0.00  0.00    +0.227 C 
ATOM    151  O   ILE A  13      31.412  -5.365   3.047  0.00  0.00    -0.286 OA
ENDBRANCH 145 150
ENDBRANCH 142 145
ENDBRANCH 140 141
ENDBRANCH 137 140
ENDBRANCH 135 136
BRANCH 135 152
ATOM    152  CB  GLN A  11      32.490  -7.793  -4.321  0.00  0.00    +0.039 C 
BRANCH 152 153
ATOM    153  CG  GLN A  11      33.657  -8.655  -4.765  0.00  0.00    +0.087 C 
BRANCH 153 154
ATOM    154  CD  GLN A  11      34.744  -7.847  -5.380  0.00  0.00    +0.219 C 
ATOM    155  OE1 GLN A  11      34.673  -6.627  -5.406  0.00  0.00    -0.275 OA
ATOM    156  NE2 GLN A  11      35.743  -8.518  -5.936  0.00  0.00    -0.329 N 
ATOM    157 HE21 GLN A  11      35.762  -9.557  -5.889  0.00  0.00    +0.145 HD
ATOM    158 HE22 GLN A  11      36.508  -8.006  -6.419  0.00  0.00    +0.145 HD
ENDBRANCH 153 154
ENDBRANCH 152 153
ENDBRANCH 135 152
ENDBRANCH 133 135
ENDBRANCH 130 131
BRANCH 130 161
ATOM    159  C   PHE A   9      34.569 -11.143  -1.476  0.00  0.00    +0.241 C 
ATOM    160  O   PHE A   9      35.234 -10.184  -1.086  0.00  0.00    -0.273 OA
ATOM    161  N   THR A  10      33.299 -11.311  -1.118  0.00  0.00    -0.296 N 
ATOM    162  H   THR A  10      32.777 -12.138  -1.472  0.00  0.00    +0.150 HD
BRANCH 159 163
ATOM    163  CA  PHE A   9      35.168 -12.187  -2.438  0.00  0.00    +0.149 C 
ATOM    164  CB  PHE A   9      34.876 -13.575  -1.954  0.00  0.00    +0.031 C 
BRANCH 163 166
ATOM    165  C   SER A   8      37.184 -11.428  -3.595  0.00  0.00    +0.241 C 
ATOM    166  N   PHE A   9      36.622 -12.027  -2.554  0.00  0.00    -0.297 N 
ATOM    167  H   PHE A   9      37.231 -12.395  -1.796  0.00  0.00    +0.150 HD
ATOM    168  O   SER A   8      36.524 -10.902  -4.490  0.00  0.00    -0.273 OA
BRANCH 165 169
ATOM    169  CA  SER A   8      38.717 -11.392  -3.624  0.00  0.00    +0.153 C 
BRANCH 169 171
ATOM    170  C   ASN A   7      40.165 -11.810  -5.598  0.00  0.00    +0.243 C 
ATOM    171  N   SER A   8      39.197 -11.109  -4.993  0.00  0.00    -0.297 N 
ATOM    172  H   SER A   8      38.759 -10.323  -5.515  0.00  0.00    +0.150 HD
ATOM    173  O   ASN A   7      40.757 -12.765  -5.086  0.00  0.00    -0.273 OA
BRANCH 170 174
ATOM    174  CA  ASN A   7      40.533 -11.385  -7.013  0.00  0.00    +0.176 C 
BRANCH 174 177
ATOM    175  C   CYS A   6      40.396  -8.994  -7.332  0.00  0.00    +0.241 C 
ATOM    176  O   CYS A   6      41.530  -8.832  -6.858  0.00  0.00    -0.273 OA
ATOM    177  N   ASN A   7      39.832 -10.183  -7.420  0.00  0.00    -0.295 N 
ATOM    178  H   ASN A   7      38.863 -10.260  -7.790  0.00  0.00    +0.150 HD
BRANCH 175 179
ATOM    179  CA  CYS A   6      39.550  -7.818  -7.856  0.00  0.00    +0.149 C 
BRANCH 179 182
ATOM    180  C   GLN A   5      39.074  -6.840  -5.757  0.00  0.00    +0.241 C 
ATOM    181  O   GLN A   5      38.492  -7.854  -5.435  0.00  0.00    -0.273 OA
ATOM    182  N   CYS A   6      39.616  -6.703  -6.962  0.00  0.00    -0.297 N 
ATOM    183  H   CYS A   6      40.074  -5.814  -7.246  0.00  0.00    +0.150 HD
BRANCH 180 184
ATOM    184  CA  GLN A   5      39.282  -5.690  -4.796  0.00  0.00    +0.149 C 
ATOM    185  CB  GLN A   5      40.294  -6.069  -3.702  0.00  0.00    +0.031 C 
BRANCH 184 187
ATOM    186  C   ALA A   4      37.152  -4.481  -4.891  0.00  0.00    +0.241 C 
ATOM    187  N   GLN A   5      38.042  -5.203  -4.203  0.00  0.00    -0.297 N 
ATOM    188  H   GLN A   5      37.843  -5.426  -3.207  0.00  0.00    +0.150 HD
ATOM    189  O   ALA A   4      37.224  -4.265  -6.114  0.00  0.00    -0.273 OA
BRANCH 186 190
ATOM    190  CA  ALA A   4      35.982  -3.938  -4.103  0.00  0.00    +0.155 C 
BRANCH 190 193
ATOM    191  C   PHE A   3      35.420  -4.393  -1.775  0.00  0.00    +0.241 C 
ATOM    192  O   PHE A   3      34.235  -4.629  -2.040  0.00  0.00    -0.273 OA
ATOM    193  N   ALA A   4      36.307  -3.994  -2.689  0.00  0.00    -0.297 N 
ATOM    194  H   ALA A   4      37.260  -3.715  -2.379  0.00  0.00    +0.150 HD
BRANCH 191 195
ATOM    195  CA  PHE A   3      35.958  -4.675  -0.401  0.00  0.00    +0.158 C 
BRANCH 195 197
ATOM    196  C   THR A   2      34.875  -2.914   0.879  0.00  0.00    +0.243 C 
ATOM    197  N   PHE A   3      35.021  -4.199   0.646  0.00  0.00    -0.297 N 
ATOM    198  H   PHE A   3      34.475  -4.889   1.201  0.00  0.00    +0.150 HD
ATOM    199  O   THR A   2      35.496  -2.024   0.305  0.00  0.00    -0.273 OA
BRANCH 196 200
ATOM    200  CA  THR A   2      33.941  -2.591   2.023  0.00  0.00    +0.176 C 
BRANCH 200 203
ATOM    201  C   VAL A   1      34.459  -2.093   4.330  0.00  0.00    +0.239 C 
ATOM    202  O   VAL A   1      33.714  -2.985   4.713  0.00  0.00    -0.274 OA
ATOM    203  N   THR A   2      34.571  -1.743   3.031  0.00  0.00    -0.295 N 
ATOM    204  H   THR A   2      35.095  -0.888   2.754  0.00  0.00    +0.150 HD
BRANCH 201 205
ATOM    205  CA  VAL A   1      35.341  -1.364   5.320  0.00  0.00    +0.149 C 
BRANCH 205 206
ATOM    206  N   VAL A   1      34.516  -1.090   6.516  0.00  0.00    -0.238 NA
ATOM    207  H   VAL A   1      34.050  -1.876   7.012  0.00  0.00    +0.142 HD
ENDBRANCH 205 206
BRANCH 205 208
ATOM    208  CB  VAL A   1      36.530  -2.255   5.691  0.00  0.00    +0.053 C 
BRANCH 208 209
ATOM    209  CG  VAL A   1      37.397  -2.646   4.508  0.00  0.00    -0.020 A 
ATOM    210  CD2 VAL A   1      38.431  -1.820   4.103  0.00  0.00    -0.004 A 
ATOM    211  CE2 VAL A   1      39.251  -2.182   3.002  0.00  0.00    -0.000 A 
ATOM    212  CZ  VAL A   1      39.030  -3.355   2.355  0.00  0.00    -0.000 A 
ATOM    213  CE1 VAL A   1      37.989  -4.205   2.723  0.00  0.00    -0.000 A 
ATOM    214  CD1 VAL A   1      37.179  -3.850   3.842  0.00  0.00    -0.004 A 
ENDBRANCH 208 209
ENDBRANCH 205 208
ENDBRANCH 201 205
ENDBRANCH 200 203
BRANCH 200 215
ATOM    215  CB  THR A   2      32.462  -2.204   1.596  0.00  0.00    +0.137 C 
ATOM    216  CG2 THR A   2      31.947  -0.954   2.268  0.00  0.00    +0.034 C 
BRANCH 215 217
ATOM    217  OG1 THR A   2      32.245  -2.241   0.164  0.00  0.00    -0.382 OA
ATOM    218  HG1 THR A   2      31.308  -1.991  -0.033  0.00  0.00    +0.210 HD
ENDBRANCH 215 217
ENDBRANCH 200 215
ENDBRANCH 196 200
ENDBRANCH 195 197
BRANCH 195 219
ATOM    219  CB  PHE A   3      36.185  -6.189  -0.229  0.00  0.00    +0.114 C 
BRANCH 219 220
ATOM    220  CG  PHE A   3      37.145  -6.746  -1.259  0.00  0.00    +0.222 C 
ATOM    221  OD1 PHE A   3      38.176  -6.137  -1.532  0.00  0.00    -0.275 OA
ATOM    222  ND2 PHE A   3      36.811  -7.892  -1.829  0.00  0.00    -0.329 N 
ATOM    223 HD21 PHE A   3      35.926  -8.367  -1.561  0.00  0.00    +0.145 HD
ATOM    224 HD22 PHE A   3      37.434  -8.318  -2.545  0.00  0.00    +0.145 HD
ENDBRANCH 219 220
ENDBRANCH 195 219
ENDBRANCH 191 195
ENDBRANCH 190 193
BRANCH 190 225
ATOM    225  CB  ALA A   4      35.678  -2.483  -4.514  0.00  0.00    +0.076 C 
BRANCH 225 226
ATOM    226  CG  ALA A   4      34.395  -1.965  -3.952  0.00  0.00    +0.082 A 
ATOM    227  CD2 ALA A   4      34.144  -0.959  -3.080  0.00  0.00    +0.115 A 
ATOM    228  NE2 ALA A   4      32.781  -0.923  -2.885  0.00  0.00    -0.221 NA
ATOM    229  CE1 ALA A   4      32.218  -1.873  -3.609  0.00  0.00    +0.199 A 
ATOM    230  ND1 ALA A   4      33.170  -2.517  -4.267  0.00  0.00    -0.227 NA
ENDBRANCH 225 226
ENDBRANCH 190 225
ENDBRANCH 186 190
ENDBRANCH 184 187
ENDBRANCH 180 184
ENDBRANCH 179 182
BRANCH 179 231
ATOM    231  CB  CYS A   6      40.047  -7.370  -9.220  0.00  0.00    +0.039 C 
BRANCH 231 232
ATOM    232  CG  CYS A   6      39.570  -8.261 -10.310  0.00  0.00    +0.087 C 
BRANCH 232 233
ATOM    233  CD  CYS A   6      39.768  -7.618 -11.618  0.00  0.00    +0.219 C 
ATOM    234  OE1 CYS A   6      38.954  -6.791 -12.055  0.00  0.00    -0.275 OA
ATOM    235  NE2 CYS A   6      40.877  -7.947 -12.255  0.00  0.00    -0.329 N 
ATOM    236 HE21 CYS A   6      41.525  -8.648 -11.842  0.00  0.00    +0.145 HD
ATOM    237 HE22 CYS A   6      41.102  -7.506 -13.169  0.00  0.00    +0.145 HD
ENDBRANCH 232 233
ENDBRANCH 231 232
ENDBRANCH 179 231
ENDBRANCH 175 179
ENDBRANCH 174 177
ENDBRANCH 170 174
ENDBRANCH 169 171
BRANCH 169 238
ATOM    238  CB  SER A   8      39.225 -10.345  -2.653  0.00  0.00    +0.055 C 
BRANCH 238 239
ATOM    239  CG  SER A   8      40.744 -10.262  -2.566  0.00  0.00    -0.020 A 
ATOM    240  CD2 SER A   8      41.436 -10.989  -1.598  0.00  0.00    -0.004 A 
ATOM    241  CE2 SER A   8      42.862 -10.921  -1.483  0.00  0.00    -0.000 A 
ATOM    242  CZ  SER A   8      43.598 -10.090  -2.397  0.00  0.00    -0.000 A 
ATOM    243  CE1 SER A   8      42.907  -9.357  -3.358  0.00  0.00    -0.000 A 
ATOM    244  CD1 SER A   8      41.465  -9.459  -3.448  0.00  0.00    -0.004 A 
ENDBRANCH 238 239
ENDBRANCH 169 238
ENDBRANCH 165 169
ENDBRANCH 163 166
ENDBRANCH 159 163
ENDBRANCH 130 161
ENDBRANCH 129 130
ENDBRANCH 128 129
ENDBRANCH 127 128
ENDBRANCH 126 127
ENDBRANCH   1 126
TORSDOF 95
REMARK  Name = ../refined-set-2016/4ggz/4ggz_pocket.pdb
REMARK  192 active torsions:
REMARK  status: ('A' for Active; 'I' for Inactive)
REMARK    1  A    between atoms: _1  and  _3
REMARK    2  A    between atoms: _3  and  _4
REMARK    3  A    between atoms: _3  and  _6
REMARK    4  A    between atoms: _6  and  _7
REMARK    5  A    between atoms: _7  and  _8
REMARK    6  A    between atoms: _8  and  _9
REMARK    7  A    between atoms: _9  and  _10
REMARK    8  A    between atoms: _14  and  _16
REMARK    9  A    between atoms: _16  and  _17
REMARK   10  A    between atoms: _16  and  _19
REMARK   11  A    between atoms: _19  and  _20
REMARK   12  A    between atoms: _25  and  _27
REMARK   13  A    between atoms: _27  and  _28
REMARK   14  A    between atoms: _27  and  _30
REMARK   15  A    between atoms: _30  and  _31
REMARK   16  A    between atoms: _31  and  _32
REMARK   17  A    between atoms: _35  and  _37
REMARK   18  A    between atoms: _37  and  _38
REMARK   19  A    between atoms: _37  and  _40
REMARK   20  A    between atoms: _40  and  _41
REMARK   21  A    between atoms: _41  and  _42
REMARK   22  A    between atoms: _42  and  _43
REMARK   23  A    between atoms: _52  and  _54
REMARK   24  A    between atoms: _54  and  _55
REMARK   25  A    between atoms: _57  and  _59
REMARK   26  A    between atoms: _59  and  _60
REMARK   27  A    between atoms: _59  and  _62
REMARK   28  A    between atoms: _62  and  _63
REMARK   29  A    between atoms: _65  and  _67
REMARK   30  A    between atoms: _67  and  _68
REMARK   31  A    between atoms: _67  and  _70
REMARK   32  A    between atoms: _70  and  _71
REMARK   33  A    between atoms: _71  and  _72
REMARK   34  A    between atoms: _75  and  _77
REMARK   35  A    between atoms: _77  and  _78
REMARK   36  A    between atoms: _77  and  _80
REMARK   37  A    between atoms: _80  and  _81
REMARK   38  A    between atoms: _87  and  _89
REMARK   39  A    between atoms: _89  and  _90
REMARK   40  A    between atoms: _89  and  _92
REMARK   41  A    between atoms: _92  and  _93
REMARK   42  A    between atoms: _96  and  _98
REMARK   43  A    between atoms: _98  and  _99
REMARK   44  A    between atoms: _98  and  _101
REMARK   45  A    between atoms: _101  and  _102
REMARK   46  A    between atoms: _107  and  _109
REMARK   47  A    between atoms: _109  and  _110
REMARK   48  A    between atoms: _109  and  _112
REMARK   49  A    between atoms: _112  and  _113
REMARK   50  A    between atoms: _118  and  _120
REMARK   51  A    between atoms: _120  and  _121
REMARK   52  A    between atoms: _124  and  _126
REMARK   53  A    between atoms: _126  and  _127
REMARK   54  A    between atoms: _126  and  _129
REMARK   55  A    between atoms: _129  and  _130
REMARK   56  A    between atoms: _130  and  _131
REMARK   57  A    between atoms: _136  and  _138
REMARK   58  A    between atoms: _138  and  _139
REMARK   59  A    between atoms: _141  and  _143
REMARK   60  A    between atoms: _143  and  _144
REMARK   61  A    between atoms: _143  and  _146
REMARK   62  A    between atoms: _146  and  _147
REMARK   63  A    between atoms: _153  and  _155
REMARK   64  A    between atoms: _155  and  _156
REMARK   65  A    between atoms: _159  and  _161
REMARK   66  A    between atoms: _161  and  _162
REMARK   67  A    between atoms: _161  and  _164
REMARK   68  A    between atoms: _164  and  _165
REMARK   69  A    between atoms: _165  and  _259
REMARK   70  A    between atoms: _166  and  _168
REMARK   71  A    between atoms: _168  and  _169
REMARK   72  A    between atoms: _168  and  _171
REMARK   73  A    between atoms: _171  and  _172
REMARK   74  A    between atoms: _172  and  _173
REMARK   75  A    between atoms: _178  and  _180
REMARK   76  A    between atoms: _180  and  _181
REMARK   77  A    between atoms: _183  and  _185
REMARK   78  A    between atoms: _185  and  _186
REMARK   79  A    between atoms: _185  and  _188
REMARK   80  A    between atoms: _188  and  _189
REMARK   81  A    between atoms: _192  and  _194
REMARK   82  A    between atoms: _194  and  _195
REMARK   83  A    between atoms: _194  and  _197
REMARK   84  A    between atoms: _197  and  _198
REMARK   85  A    between atoms: _203  and  _204
REMARK   86  A    between atoms: _206  and  _208
REMARK   87  A    between atoms: _208  and  _209
REMARK   88  A    between atoms: _208  and  _211
REMARK   89  A    between atoms: _214  and  _216
REMARK   90  A    between atoms: _216  and  _217
REMARK   91  A    between atoms: _216  and  _219
REMARK   92  A    between atoms: _219  and  _220
REMARK   93  A    between atoms: _223  and  _225
REMARK   94  A    between atoms: _225  and  _226
REMARK   95  A    between atoms: _225  and  _228
REMARK   96  A    between atoms: _228  and  _229
REMARK   97  A    between atoms: _235  and  _237
REMARK   98  A    between atoms: _237  and  _238
REMARK   99  A    between atoms: _241  and  _243
REMARK  100  A    between atoms: _243  and  _244
REMARK  101  A    between atoms: _243  and  _246
REMARK  102  A    between atoms: _246  and  _247
REMARK  103  A    between atoms: _247  and  _248
REMARK  104  A    between atoms: _253  and  _255
REMARK  105  A    between atoms: _255  and  _256
REMARK  106  A    between atoms: _255  and  _258
REMARK  107  A    between atoms: _258  and  _259
REMARK  108  A    between atoms: _260  and  _262
REMARK  109  A    between atoms: _262  and  _263
REMARK  110  A    between atoms: _262  and  _265
REMARK  111  A    between atoms: _265  and  _266
REMARK  112  A    between atoms: _271  and  _273
REMARK  113  A    between atoms: _273  and  _274
REMARK  114  A    between atoms: _273  and  _276
REMARK  115  A    between atoms: _276  and  _277
REMARK  116  A    between atoms: _279  and  _281
REMARK  117  A    between atoms: _281  and  _282
REMARK  118  A    between atoms: _281  and  _284
REMARK  119  A    between atoms: _284  and  _285
REMARK  120  A    between atoms: _291  and  _293
REMARK  121  A    between atoms: _293  and  _294
REMARK  122  A    between atoms: _293  and  _296
REMARK  123  A    between atoms: _296  and  _297
REMARK  124  A    between atoms: _300  and  _302
REMARK  125  A    between atoms: _302  and  _303
REMARK  126  A    between atoms: _302  and  _305
REMARK  127  A    between atoms: _305  and  _306
REMARK  128  A    between atoms: _306  and  _307
REMARK  129  A    between atoms: _307  and  _308
REMARK  130  A    between atoms: _317  and  _319
REMARK  131  A    between atoms: _319  and  _320
REMARK  132  A    between atoms: _319  and  _322
REMARK  133  A    between atoms: _322  and  _323
REMARK  134  A    between atoms: _333  and  _335
REMARK  135  A    between atoms: _335  and  _336
REMARK  136  A    between atoms: _335  and  _338
REMARK  137  A    between atoms: _338  and  _339
REMARK  138  A    between atoms: _342  and  _344
REMARK  139  A    between atoms: _344  and  _345
REMARK  140  A    between atoms: _344  and  _347
REMARK  141  A    between atoms: _347  and  _348
REMARK  142  A    between atoms: _350  and  _352
REMARK  143  A    between atoms: _352  and  _353
REMARK  144  A    between atoms: _352  and  _355
REMARK  145  A    between atoms: _355  and  _356
REMARK  146  A    between atoms: _366  and  _368
REMARK  147  A    between atoms: _368  and  _369
REMARK  148  A    between atoms: _368  and  _371
REMARK  149  A    between atoms: _371  and  _372
REMARK  150  A    between atoms: _375  and  _377
REMARK  151  A    between atoms: _377  and  _378
REMARK  152  A    between atoms: _377  and  _380
REMARK  153  A    between atoms: _380  and  _381
REMARK  154  A    between atoms: _384  and  _386
REMARK  155  A    between atoms: _386  and  _387
REMARK  156  A    between atoms: _386  and  _389
REMARK  157  A    between atoms: _389  and  _390
REMARK  158  A    between atoms: _396  and  _398
REMARK  159  A    between atoms: _398  and  _399
REMARK  160  A    between atoms: _398  and  _401
REMARK  161  A    between atoms: _401  and  _402
REMARK  162  A    between atoms: _407  and  _408
REMARK  163  A    between atoms: _410  and  _412
REMARK  164  A    between atoms: _412  and  _413
REMARK  165  A    between atoms: _412  and  _415
REMARK  166  A    between atoms: _418  and  _420
REMARK  167  A    between atoms: _420  and  _421
REMARK  168  A    between atoms: _420  and  _423
REMARK  169  A    between atoms: _423  and  _424
REMARK  170  A    between atoms: _427  and  _429
REMARK  171  A    between atoms: _429  and  _430
REMARK  172  A    between atoms: _429  and  _432
REMARK  173  A    between atoms: _432  and  _433
REMARK  174  A    between atoms: _433  and  _434
REMARK  175  A    between atoms: _434  and  _435
REMARK  176  A    between atoms: _435  and  _436
REMARK  177  A    between atoms: _440  and  _442
REMARK  178  A    between atoms: _442  and  _443
REMARK  179  A    between atoms: _445  and  _447
REMARK  180  A    between atoms: _447  and  _448
REMARK  181  A    between atoms: _450  and  _452
REMARK  182  A    between atoms: _452  and  _453
REMARK  183  A    between atoms: _452  and  _455
REMARK  184  A    between atoms: _455  and  _456
REMARK  185  A    between atoms: _459  and  _461
REMARK  186  A    between atoms: _461  and  _462
REMARK  187  A    between atoms: _461  and  _464
REMARK  188  A    between atoms: _464  and  _465
REMARK  189  A    between atoms: _468  and  _470
REMARK  190  A    between atoms: _470  and  _471
REMARK  191  A    between atoms: _470  and  _473
REMARK  192  A    between atoms: _473  and  _474
REMARK                            x       y       z     vdW  Elec       q    Type
REMARK                         _______ _______ _______ _____ _____    ______ ____
ROOT
ATOM      1  CG  TYR A   1      32.159  -7.201   6.613  0.00  0.00    -0.020 A 
ATOM      2  CD2 TYR A   1      31.213  -7.937   7.330  0.00  0.00    -0.001 A 
ATOM      3  CE2 TYR A   1      30.612  -9.060   6.787  0.00  0.00    +0.036 A 
ATOM      4  CZ  TYR A   1      30.969  -9.457   5.515  0.00  0.00    +0.134 A 
ATOM      5  CE1 TYR A   1      31.888  -8.752   4.788  0.00  0.00    +0.036 A 
ATOM      6  CD1 TYR A   1      32.488  -7.622   5.327  0.00  0.00    -0.001 A 
ENDROOT
BRANCH   4   7
ATOM      7  OH  TYR A   1      30.401 -10.571   4.937  0.00  0.00    -0.506 OA
ATOM      8  HH  TYR A   1      29.421 -10.446   4.875  0.00  0.00    +0.292 HD
ENDBRANCH   4   7
BRANCH   1   9
ATOM      9  CB  TYR A   1      32.819  -5.984   7.216  0.00  0.00    +0.051 C 
BRANCH   9  10
ATOM     10  CA  TYR A   1      31.861  -4.839   7.435  0.00  0.00    +0.137 C 
BRANCH  10  11
ATOM     11  N   TYR A   1      31.613  -4.140   6.184  0.00  0.00    -0.239 NA
ATOM     12  H   TYR A   1      32.406  -3.692   5.682  0.00  0.00    +0.142 HD
ENDBRANCH  10  11
BRANCH  10  13
ATOM     13  C   TYR A   1      32.488  -3.897   8.426  0.00  0.00    +0.224 C 
ATOM     14  O   TYR A   1      33.218  -3.019   8.054  0.00  0.00    -0.287 OA
ENDBRANCH  10  13
ENDBRANCH   9  10
ENDBRANCH   1   9
TORSDOF 5
REMARK  Name = ../refined-set-2016/4ggz/4ggz_pocket.pdb
REMARK  192 active torsions:
REMARK  status: ('A' for Active; 'I' for Inactive)
REMARK    1  A    between atoms: _1  and  _3
REMARK    2  A    between atoms: _3  and  _4
REMARK    3  A    between atoms: _3  and  _6
REMARK    4  A    between atoms: _6  and  _7
REMARK    5  A    between atoms: _7  and  _8
REMARK    6  A    between atoms: _8  and  _9
REMARK    7  A    between atoms: _9  and  _10
REMARK    8  A    between atoms: _14  and  _16
REMARK    9  A    between atoms: _16  and  _17
REMARK   10  A    between atoms: _16  and  _19
REMARK   11  A    between atoms: _19  and  _20
REMARK   12  A    between atoms: _25  and  _27
REMARK   13  A    between atoms: _27  and  _28
REMARK   14  A    between atoms: _27  and  _30
REMARK   15  A    between atoms: _30  and  _31
REMARK   16  A    between atoms: _31  and  _32
REMARK   17  A    between atoms: _35  and  _37
REMARK   18  A    between atoms: _37  and  _38
REMARK   19  A    between atoms: _37  and  _40
REMARK   20  A    between atoms: _40  and  _41
REMARK   21  A    between atoms: _41  and  _42
REMARK   22  A    between atoms: _42  and  _43
REMARK   23  A    between atoms: _52  and  _54
REMARK   24  A    between atoms: _54  and  _55
REMARK   25  A    between atoms: _57  and  _59
REMARK   26  A    between atoms: _59  and  _60
REMARK   27  A    between atoms: _59  and  _62
REMARK   28  A    between atoms: _62  and  _63
REMARK   29  A    between atoms: _65  and  _67
REMARK   30  A    between atoms: _67  and  _68
REMARK   31  A    between atoms: _67  and  _70
REMARK   32  A    between atoms: _70  and  _71
REMARK   33  A    between atoms: _71  and  _72
REMARK   34  A    between atoms: _75  and  _77
REMARK   35  A    between atoms: _77  and  _78
REMARK   36  A    between atoms: _77  and  _80
REMARK   37  A    between atoms: _80  and  _81
REMARK   38  A    between atoms: _87  and  _89
REMARK   39  A    between atoms: _89  and  _90
REMARK   40  A    between atoms: _89  and  _92
REMARK   41  A    between atoms: _92  and  _93
REMARK   42  A    between atoms: _96  and  _98
REMARK   43  A    between atoms: _98  and  _99
REMARK   44  A    between atoms: _98  and  _101
REMARK   45  A    between atoms: _101  and  _102
REMARK   46  A    between atoms: _107  and  _109
REMARK   47  A    between atoms: _109  and  _110
REMARK   48  A    between atoms: _109  and  _112
REMARK   49  A    between atoms: _112  and  _113
REMARK   50  A    between atoms: _118  and  _120
REMARK   51  A    between atoms: _120  and  _121
REMARK   52  A    between atoms: _124  and  _126
REMARK   53  A    between atoms: _126  and  _127
REMARK   54  A    between atoms: _126  and  _129
REMARK   55  A    between atoms: _129  and  _130
REMARK   56  A    between atoms: _130  and  _131
REMARK   57  A    between atoms: _136  and  _138
REMARK   58  A    between atoms: _138  and  _139
REMARK   59  A    between atoms: _141  and  _143
REMARK   60  A    between atoms: _143  and  _144
REMARK   61  A    between atoms: _143  and  _146
REMARK   62  A    between atoms: _146  and  _147
REMARK   63  A    between atoms: _153  and  _155
REMARK   64  A    between atoms: _155  and  _156
REMARK   65  A    between atoms: _159  and  _161
REMARK   66  A    between atoms: _161  and  _162
REMARK   67  A    between atoms: _161  and  _164
REMARK   68  A    between atoms: _164  and  _165
REMARK   69  A    between atoms: _165  and  _259
REMARK   70  A    between atoms: _166  and  _168
REMARK   71  A    between atoms: _168  and  _169
REMARK   72  A    between atoms: _168  and  _171
REMARK   73  A    between atoms: _171  and  _172
REMARK   74  A    between atoms: _172  and  _173
REMARK   75  A    between atoms: _178  and  _180
REMARK   76  A    between atoms: _180  and  _181
REMARK   77  A    between atoms: _183  and  _185
REMARK   78  A    between atoms: _185  and  _186
REMARK   79  A    between atoms: _185  and  _188
REMARK   80  A    between atoms: _188  and  _189
REMARK   81  A    between atoms: _192  and  _194
REMARK   82  A    between atoms: _194  and  _195
REMARK   83  A    between atoms: _194  and  _197
REMARK   84  A    between atoms: _197  and  _198
REMARK   85  A    between atoms: _203  and  _204
REMARK   86  A    between atoms: _206  and  _208
REMARK   87  A    between atoms: _208  and  _209
REMARK   88  A    between atoms: _208  and  _211
REMARK   89  A    between atoms: _214  and  _216
REMARK   90  A    between atoms: _216  and  _217
REMARK   91  A    between atoms: _216  and  _219
REMARK   92  A    between atoms: _219  and  _220
REMARK   93  A    between atoms: _223  and  _225
REMARK   94  A    between atoms: _225  and  _226
REMARK   95  A    between atoms: _225  and  _228
REMARK   96  A    between atoms: _228  and  _229
REMARK   97  A    between atoms: _235  and  _237
REMARK   98  A    between atoms: _237  and  _238
REMARK   99  A    between atoms: _241  and  _243
REMARK  100  A    between atoms: _243  and  _244
REMARK  101  A    between atoms: _243  and  _246
REMARK  102  A    between atoms: _246  and  _247
REMARK  103  A    between atoms: _247  and  _248
REMARK  104  A    between atoms: _253  and  _255
REMARK  105  A    between atoms: _255  and  _256
REMARK  106  A    between atoms: _255  and  _258
REMARK  107  A    between atoms: _258  and  _259
REMARK  108  A    between atoms: _260  and  _262
REMARK  109  A    between atoms: _262  and  _263
REMARK  110  A    between atoms: _262  and  _265
REMARK  111  A    between atoms: _265  and  _266
REMARK  112  A    between atoms: _271  and  _273
REMARK  113  A    between atoms: _273  and  _274
REMARK  114  A    between atoms: _273  and  _276
REMARK  115  A    between atoms: _276  and  _277
REMARK  116  A    between atoms: _279  and  _281
REMARK  117  A    between atoms: _281  and  _282
REMARK  118  A    between atoms: _281  and  _284
REMARK  119  A    between atoms: _284  and  _285
REMARK  120  A    between atoms: _291  and  _293
REMARK  121  A    between atoms: _293  and  _294
REMARK  122  A    between atoms: _293  and  _296
REMARK  123  A    between atoms: _296  and  _297
REMARK  124  A    between atoms: _300  and  _302
REMARK  125  A    between atoms: _302  and  _303
REMARK  126  A    between atoms: _302  and  _305
REMARK  127  A    between atoms: _305  and  _306
REMARK  128  A    between atoms: _306  and  _307
REMARK  129  A    between atoms: _307  and  _308
REMARK  130  A    between atoms: _317  and  _319
REMARK  131  A    between atoms: _319  and  _320
REMARK  132  A    between atoms: _319  and  _322
REMARK  133  A    between atoms: _322  and  _323
REMARK  134  A    between atoms: _333  and  _335
REMARK  135  A    between atoms: _335  and  _336
REMARK  136  A    between atoms: _335  and  _338
REMARK  137  A    between atoms: _338  and  _339
REMARK  138  A    between atoms: _342  and  _344
REMARK  139  A    between atoms: _344  and  _345
REMARK  140  A    between atoms: _344  and  _347
REMARK  141  A    between atoms: _347  and  _348
REMARK  142  A    between atoms: _350  and  _352
REMARK  143  A    between atoms: _352  and  _353
REMARK  144  A    between atoms: _352  and  _355
REMARK  145  A    between atoms: _355  and  _356
REMARK  146  A    between atoms: _366  and  _368
REMARK  147  A    between atoms: _368  and  _369
REMARK  148  A    between atoms: _368  and  _371
REMARK  149  A    between atoms: _371  and  _372
REMARK  150  A    between atoms: _375  and  _377
REMARK  151  A    between atoms: _377  and  _378
REMARK  152  A    between atoms: _377  and  _380
REMARK  153  A    between atoms: _380  and  _381
REMARK  154  A    between atoms: _384  and  _386
REMARK  155  A    between atoms: _386  and  _387
REMARK  156  A    between atoms: _386  and  _389
REMARK  157  A    between atoms: _389  and  _390
REMARK  158  A    between atoms: _396  and  _398
REMARK  159  A    between atoms: _398  and  _399
REMARK  160  A    between atoms: _398  and  _401
REMARK  161  A    between atoms: _401  and  _402
REMARK  162  A    between atoms: _407  and  _408
REMARK  163  A    between atoms: _410  and  _412
REMARK  164  A    between atoms: _412  and  _413
REMARK  165  A    between atoms: _412  and  _415
REMARK  166  A    between atoms: _418  and  _420
REMARK  167  A    between atoms: _420  and  _421
REMARK  168  A    between atoms: _420  and  _423
REMARK  169  A    between atoms: _423  and  _424
REMARK  170  A    between atoms: _427  and  _429
REMARK  171  A    between atoms: _429  and  _430
REMARK  172  A    between atoms: _429  and  _432
REMARK  173  A    between atoms: _432  and  _433
REMARK  174  A    between atoms: _433  and  _434
REMARK  175  A    between atoms: _434  and  _435
REMARK  176  A    between atoms: _435  and  _436
REMARK  177  A    between atoms: _440  and  _442
REMARK  178  A    between atoms: _442  and  _443
REMARK  179  A    between atoms: _445  and  _447
REMARK  180  A    between atoms: _447  and  _448
REMARK  181  A    between atoms: _450  and  _452
REMARK  182  A    between atoms: _452  and  _453
REMARK  183  A    between atoms: _452  and  _455
REMARK  184  A    between atoms: _455  and  _456
REMARK  185  A    between atoms: _459  and  _461
REMARK  186  A    between atoms: _461  and  _462
REMARK  187  A    between atoms: _461  and  _464
REMARK  188  A    between atoms: _464  and  _465
REMARK  189  A    between atoms: _468  and  _470
REMARK  190  A    between atoms: _470  and  _471
REMARK  191  A    between atoms: _470  and  _473
REMARK  192  A    between atoms: _473  and  _474
REMARK                            x       y       z     vdW  Elec       q    Type
REMARK                         _______ _______ _______ _____ _____    ______ ____
ROOT
ATOM      1  C   THR A   4      46.159 -10.793   6.237  0.00  0.00    +0.243 C 
ATOM      2  O   THR A   4      45.418 -10.291   7.087  0.00  0.00    -0.273 OA
ATOM      3  N   LEU A   5      45.753 -11.687   5.338  0.00  0.00    -0.297 N 
ATOM      4  H   LEU A   5      46.444 -12.058   4.655  0.00  0.00    +0.150 HD
ENDROOT
BRANCH   3   5
ATOM      5  CA  LEU A   5      44.371 -12.169   5.273  0.00  0.00    +0.149 C 
BRANCH   5   6
ATOM      6  C   LEU A   5      44.421 -13.591   5.783  0.00  0.00    +0.241 C 
ATOM      7  N   PHE A   6      43.754 -13.841   6.912  0.00  0.00    -0.297 N 
ATOM      8  H   PHE A   6      43.260 -13.054   7.379  0.00  0.00    +0.150 HD
ATOM      9  O   LEU A   5      45.114 -14.421   5.199  0.00  0.00    -0.273 OA
BRANCH   7  10
ATOM     10  CA  PHE A   6      43.685 -15.163   7.522  0.00  0.00    +0.153 C 
BRANCH  10  11
ATOM     11  C   PHE A   6      42.373 -15.777   7.150  0.00  0.00    +0.241 C 
ATOM     12  O   PHE A   6      41.306 -15.206   7.417  0.00  0.00    -0.273 OA
ATOM     13  N   TYR A   7      42.406 -16.953   6.523  0.00  0.00    -0.297 N 
ATOM     14  H   TYR A   7      43.310 -17.428   6.326  0.00  0.00    +0.150 HD
BRANCH  13  15
ATOM     15  CA  TYR A   7      41.135 -17.557   6.119  0.00  0.00    +0.153 C 
BRANCH  15  16
ATOM     16  C   TYR A   7      41.062 -19.040   6.504  0.00  0.00    +0.241 C 
ATOM     17  N   VAL A   8      39.857 -19.524   6.775  0.00  0.00    -0.298 N 
ATOM     18  H   VAL A   8      39.056 -18.865   6.846  0.00  0.00    +0.150 HD
ATOM     19  O   TYR A   7      42.094 -19.695   6.606  0.00  0.00    -0.273 OA
BRANCH  17  20
ATOM     20  CA  VAL A   8      39.616 -20.948   6.977  0.00  0.00    +0.137 C 
BRANCH  20  21
ATOM     21  CB  VAL A   8      38.568 -21.196   8.081  0.00  0.00    +0.026 C 
ATOM     22  CG2 VAL A   8      39.073 -20.688   9.425  0.00  0.00    +0.002 C 
ATOM     23  CG1 VAL A   8      38.217 -22.685   8.187  0.00  0.00    +0.002 C 
ENDBRANCH  20  21
BRANCH  20  24
ATOM     24  C   VAL A   8      39.103 -21.431   5.629  0.00  0.00    +0.227 C 
ATOM     25  O   VAL A   8      38.038 -21.015   5.166  0.00  0.00    -0.286 OA
ENDBRANCH  20  24
ENDBRANCH  17  20
ENDBRANCH  15  16
BRANCH  15  26
ATOM     26  CB  TYR A   7      40.859 -17.332   4.631  0.00  0.00    +0.055 C 
BRANCH  26  27
ATOM     27  CG  TYR A   7      41.825 -17.960   3.644  0.00  0.00    -0.020 A 
ATOM     28  CD2 TYR A   7      43.083 -17.383   3.382  0.00  0.00    -0.001 A 
ATOM     29  CE2 TYR A   7      43.971 -17.959   2.424  0.00  0.00    +0.036 A 
ATOM     30  CZ  TYR A   7      43.575 -19.132   1.754  0.00  0.00    +0.134 A 
ATOM     31  CE1 TYR A   7      42.348 -19.708   2.011  0.00  0.00    +0.036 A 
ATOM     32  CD1 TYR A   7      41.483 -19.136   2.969  0.00  0.00    -0.001 A 
BRANCH  30  33
ATOM     33  OH  TYR A   7      44.423 -19.702   0.814  0.00  0.00    -0.506 OA
ATOM     34  HH  TYR A   7      45.254 -19.167   0.754  0.00  0.00    +0.292 HD
ENDBRANCH  30  33
ENDBRANCH  26  27
ENDBRANCH  15  26
ENDBRANCH  13  15
ENDBRANCH  10  11
BRANCH  10  35
ATOM     35  CB  PHE A   6      43.742 -15.038   9.045  0.00  0.00    +0.055 C 
BRANCH  35  36
ATOM     36  CG  PHE A   6      44.980 -14.318   9.561  0.00  0.00    -0.020 A 
ATOM     37  CD2 PHE A   6      46.058 -15.029  10.048  0.00  0.00    -0.004 A 
ATOM     38  CE2 PHE A   6      47.184 -14.369  10.536  0.00  0.00    -0.000 A 
ATOM     39  CZ  PHE A   6      47.221 -12.963  10.560  0.00  0.00    -0.000 A 
ATOM     40  CE1 PHE A   6      46.142 -12.246  10.069  0.00  0.00    -0.000 A 
ATOM     41  CD1 PHE A   6      45.031 -12.915   9.583  0.00  0.00    -0.004 A 
ENDBRANCH  35  36
ENDBRANCH  10  35
ENDBRANCH   7  10
ENDBRANCH   5   6
BRANCH   5  42
ATOM     42  CB  LEU A   5      43.839 -12.099   3.823  0.00  0.00    +0.029 C 
BRANCH  42  43
ATOM     43  CG  LEU A   5      42.535 -12.827   3.447  0.00  0.00    +0.002 C 
ATOM     44  CD2 LEU A   5      41.339 -12.165   4.019  0.00  0.00    +0.000 C 
ATOM     45  CD1 LEU A   5      42.332 -12.928   1.899  0.00  0.00    +0.000 C 
ENDBRANCH  42  43
ENDBRANCH   5  42
ENDBRANCH   3   5
BRANCH   1  46
ATOM     46  CA  THR A   4      47.620 -10.370   6.145  0.00  0.00    +0.176 C 
BRANCH  46  48
ATOM     47  C   TRP A   3      48.340  -8.221   5.256  0.00  0.00    +0.241 C 
ATOM     48  N   THR A   4      47.697  -8.919   6.184  0.00  0.00    -0.295 N 
ATOM     49  H   THR A   4      47.233  -8.411   6.964  0.00  0.00    +0.150 HD
ATOM     50  O   TRP A   3      49.063  -8.712   4.374  0.00  0.00    -0.273 OA
BRANCH  47  51
ATOM     51  CA  TRP A   3      48.092  -6.723   5.337  0.00  0.00    +0.153 C 
BRANCH  51  54
ATOM     52  C   SER A   2      49.636  -4.878   5.332  0.00  0.00    +0.243 C 
ATOM     53  O   SER A   2      49.213  -4.452   6.431  0.00  0.00    -0.273 OA
ATOM     54  N   TRP A   3      49.185  -5.981   4.745  0.00  0.00    -0.297 N 
ATOM     55  H   TRP A   3      49.618  -6.312   3.859  0.00  0.00    +0.150 HD
BRANCH  52  56
ATOM     56  CA  SER A   2      50.746  -4.134   4.631  0.00  0.00    +0.178 C 
BRANCH  56  58
ATOM     57  C   THR A   1      50.439  -1.776   4.110  0.00  0.00    +0.241 C 
ATOM     58  N   SER A   2      50.607  -2.731   5.008  0.00  0.00    -0.295 N 
ATOM     59  H   SER A   2      50.641  -2.475   6.015  0.00  0.00    +0.150 HD
ATOM     60  O   THR A   1      50.653  -1.941   2.886  0.00  0.00    -0.274 OA
BRANCH  57  61
ATOM     61  CA  THR A   1      50.015  -0.443   4.675  0.00  0.00    +0.172 C 
BRANCH  61  62
ATOM     62  N   THR A   1      50.191   0.681   3.756  0.00  0.00    -0.236 NA
ATOM     63  H   THR A   1      50.048   0.538   2.736  0.00  0.00    +0.142 HD
ENDBRANCH  61  62
BRANCH  61  64
ATOM     64  CB  THR A   1      48.527  -0.644   5.082  0.00  0.00    +0.135 C 
ATOM     65  CG2 THR A   1      47.923   0.600   5.720  0.00  0.00    +0.034 C 
BRANCH  64  66
ATOM     66  OG1 THR A   1      47.747  -1.026   3.938  0.00  0.00    -0.383 OA
ATOM     67  HG1 THR A   1      47.802  -0.316   3.250  0.00  0.00    +0.210 HD
ENDBRANCH  64  66
ENDBRANCH  61  64
ENDBRANCH  57  61
ENDBRANCH  56  58
BRANCH  56  68
ATOM     68  CB  SER A   2      52.098  -4.697   5.091  0.00  0.00    +0.166 C 
BRANCH  68  69
ATOM     69  OG  SER A   2      53.154  -4.115   4.357  0.00  0.00    -0.380 OA
ATOM     70  H   SER A   2      53.034  -4.313   3.395  0.00  0.00    +0.211 HD
ENDBRANCH  68  69
ENDBRANCH  56  68
ENDBRANCH  52  56
ENDBRANCH  51  54
BRANCH  51  71
ATOM     71  CB  TRP A   3      46.717  -6.369   4.690  0.00  0.00    +0.057 C 
BRANCH  71  72
ATOM     72  CG  TRP A   3      46.678  -6.534   3.147  0.00  0.00    -0.002 A 
ATOM     73  CD2 TRP A   3      46.492  -7.756   2.392  0.00  0.00    +0.013 A 
ATOM     74  CE3 TRP A   3      46.283  -9.106   2.737  0.00  0.00    +0.001 A 
ATOM     75  CZ3 TRP A   3      46.125 -10.043   1.726  0.00  0.00    +0.000 A 
ATOM     76  CH2 TRP A   3      46.234  -9.662   0.349  0.00  0.00    +0.001 A 
ATOM     77  CZ2 TRP A   3      46.454  -8.358  -0.012  0.00  0.00    +0.017 A 
ATOM     78  CE2 TRP A   3      46.589  -7.413   1.010  0.00  0.00    +0.056 A 
ATOM     79  NE1 TRP A   3      46.813  -6.060   0.940  0.00  0.00    -0.352 N 
ATOM     80  HE1 TRP A   3      46.929  -5.511   0.064  0.00  0.00    +0.166 HD
ATOM     81  CD1 TRP A   3      46.859  -5.542   2.230  0.00  0.00    +0.068 A 
ENDBRANCH  71  72
ENDBRANCH  51  71
ENDBRANCH  47  51
ENDBRANCH  46  48
BRANCH  46  82
ATOM     82  CB  THR A   4      48.543 -11.076   7.194  0.00  0.00    +0.137 C 
ATOM     83  CG2 THR A   4      48.413 -10.474   8.585  0.00  0.00    +0.034 C 
BRANCH  82  84
ATOM     84  OG1 THR A   4      48.225 -12.475   7.247  0.00  0.00    -0.382 OA
ATOM     85  HG1 THR A   4      48.809 -12.920   7.911  0.00  0.00    +0.210 HD
ENDBRANCH  82  84
ENDBRANCH  46  82
ENDBRANCH   1  46
TORSDOF 32
REMARK  Name = ../refined-set-2016/4ggz/4ggz_pocket.pdb
REMARK  192 active torsions:
REMARK  status: ('A' for Active; 'I' for Inactive)
REMARK    1  A    between atoms: _1  and  _3
REMARK    2  A    between atoms: _3  and  _4
REMARK    3  A    between atoms: _3  and  _6
REMARK    4  A    between atoms: _6  and  _7
REMARK    5  A    between atoms: _7  and  _8
REMARK    6  A    between atoms: _8  and  _9
REMARK    7  A    between atoms: _9  and  _10
REMARK    8  A    between atoms: _14  and  _16
REMARK    9  A    between atoms: _16  and  _17
REMARK   10  A    between atoms: _16  and  _19
REMARK   11  A    between atoms: _19  and  _20
REMARK   12  A    between atoms: _25  and  _27
REMARK   13  A    between atoms: _27  and  _28
REMARK   14  A    between atoms: _27  and  _30
REMARK   15  A    between atoms: _30  and  _31
REMARK   16  A    between atoms: _31  and  _32
REMARK   17  A    between atoms: _35  and  _37
REMARK   18  A    between atoms: _37  and  _38
REMARK   19  A    between atoms: _37  and  _40
REMARK   20  A    between atoms: _40  and  _41
REMARK   21  A    between atoms: _41  and  _42
REMARK   22  A    between atoms: _42  and  _43
REMARK   23  A    between atoms: _52  and  _54
REMARK   24  A    between atoms: _54  and  _55
REMARK   25  A    between atoms: _57  and  _59
REMARK   26  A    between atoms: _59  and  _60
REMARK   27  A    between atoms: _59  and  _62
REMARK   28  A    between atoms: _62  and  _63
REMARK   29  A    between atoms: _65  and  _67
REMARK   30  A    between atoms: _67  and  _68
REMARK   31  A    between atoms: _67  and  _70
REMARK   32  A    between atoms: _70  and  _71
REMARK   33  A    between atoms: _71  and  _72
REMARK   34  A    between atoms: _75  and  _77
REMARK   35  A    between atoms: _77  and  _78
REMARK   36  A    between atoms: _77  and  _80
REMARK   37  A    between atoms: _80  and  _81
REMARK   38  A    between atoms: _87  and  _89
REMARK   39  A    between atoms: _89  and  _90
REMARK   40  A    between atoms: _89  and  _92
REMARK   41  A    between atoms: _92  and  _93
REMARK   42  A    between atoms: _96  and  _98
REMARK   43  A    between atoms: _98  and  _99
REMARK   44  A    between atoms: _98  and  _101
REMARK   45  A    between atoms: _101  and  _102
REMARK   46  A    between atoms: _107  and  _109
REMARK   47  A    between atoms: _109  and  _110
REMARK   48  A    between atoms: _109  and  _112
REMARK   49  A    between atoms: _112  and  _113
REMARK   50  A    between atoms: _118  and  _120
REMARK   51  A    between atoms: _120  and  _121
REMARK   52  A    between atoms: _124  and  _126
REMARK   53  A    between atoms: _126  and  _127
REMARK   54  A    between atoms: _126  and  _129
REMARK   55  A    between atoms: _129  and  _130
REMARK   56  A    between atoms: _130  and  _131
REMARK   57  A    between atoms: _136  and  _138
REMARK   58  A    between atoms: _138  and  _139
REMARK   59  A    between atoms: _141  and  _143
REMARK   60  A    between atoms: _143  and  _144
REMARK   61  A    between atoms: _143  and  _146
REMARK   62  A    between atoms: _146  and  _147
REMARK   63  A    between atoms: _153  and  _155
REMARK   64  A    between atoms: _155  and  _156
REMARK   65  A    between atoms: _159  and  _161
REMARK   66  A    between atoms: _161  and  _162
REMARK   67  A    between atoms: _161  and  _164
REMARK   68  A    between atoms: _164  and  _165
REMARK   69  A    between atoms: _165  and  _259
REMARK   70  A    between atoms: _166  and  _168
REMARK   71  A    between atoms: _168  and  _169
REMARK   72  A    between atoms: _168  and  _171
REMARK   73  A    between atoms: _171  and  _172
REMARK   74  A    between atoms: _172  and  _173
REMARK   75  A    between atoms: _178  and  _180
REMARK   76  A    between atoms: _180  and  _181
REMARK   77  A    between atoms: _183  and  _185
REMARK   78  A    between atoms: _185  and  _186
REMARK   79  A    between atoms: _185  and  _188
REMARK   80  A    between atoms: _188  and  _189
REMARK   81  A    between atoms: _192  and  _194
REMARK   82  A    between atoms: _194  and  _195
REMARK   83  A    between atoms: _194  and  _197
REMARK   84  A    between atoms: _197  and  _198
REMARK   85  A    between atoms: _203  and  _204
REMARK   86  A    between atoms: _206  and  _208
REMARK   87  A    between atoms: _208  and  _209
REMARK   88  A    between atoms: _208  and  _211
REMARK   89  A    between atoms: _214  and  _216
REMARK   90  A    between atoms: _216  and  _217
REMARK   91  A    between atoms: _216  and  _219
REMARK   92  A    between atoms: _219  and  _220
REMARK   93  A    between atoms: _223  and  _225
REMARK   94  A    between atoms: _225  and  _226
REMARK   95  A    between atoms: _225  and  _228
REMARK   96  A    between atoms: _228  and  _229
REMARK   97  A    between atoms: _235  and  _237
REMARK   98  A    between atoms: _237  and  _238
REMARK   99  A    between atoms: _241  and  _243
REMARK  100  A    between atoms: _243  and  _244
REMARK  101  A    between atoms: _243  and  _246
REMARK  102  A    between atoms: _246  and  _247
REMARK  103  A    between atoms: _247  and  _248
REMARK  104  A    between atoms: _253  and  _255
REMARK  105  A    between atoms: _255  and  _256
REMARK  106  A    between atoms: _255  and  _258
REMARK  107  A    between atoms: _258  and  _259
REMARK  108  A    between atoms: _260  and  _262
REMARK  109  A    between atoms: _262  and  _263
REMARK  110  A    between atoms: _262  and  _265
REMARK  111  A    between atoms: _265  and  _266
REMARK  112  A    between atoms: _271  and  _273
REMARK  113  A    between atoms: _273  and  _274
REMARK  114  A    between atoms: _273  and  _276
REMARK  115  A    between atoms: _276  and  _277
REMARK  116  A    between atoms: _279  and  _281
REMARK  117  A    between atoms: _281  and  _282
REMARK  118  A    between atoms: _281  and  _284
REMARK  119  A    between atoms: _284  and  _285
REMARK  120  A    between atoms: _291  and  _293
REMARK  121  A    between atoms: _293  and  _294
REMARK  122  A    between atoms: _293  and  _296
REMARK  123  A    between atoms: _296  and  _297
REMARK  124  A    between atoms: _300  and  _302
REMARK  125  A    between atoms: _302  and  _303
REMARK  126  A    between atoms: _302  and  _305
REMARK  127  A    between atoms: _305  and  _306
REMARK  128  A    between atoms: _306  and  _307
REMARK  129  A    between atoms: _307  and  _308
REMARK  130  A    between atoms: _317  and  _319
REMARK  131  A    between atoms: _319  and  _320
REMARK  132  A    between atoms: _319  and  _322
REMARK  133  A    between atoms: _322  and  _323
REMARK  134  A    between atoms: _333  and  _335
REMARK  135  A    between atoms: _335  and  _336
REMARK  136  A    between atoms: _335  and  _338
REMARK  137  A    between atoms: _338  and  _339
REMARK  138  A    between atoms: _342  and  _344
REMARK  139  A    between atoms: _344  and  _345
REMARK  140  A    between atoms: _344  and  _347
REMARK  141  A    between atoms: _347  and  _348
REMARK  142  A    between atoms: _350  and  _352
REMARK  143  A    between atoms: _352  and  _353
REMARK  144  A    between atoms: _352  and  _355
REMARK  145  A    between atoms: _355  and  _356
REMARK  146  A    between atoms: _366  and  _368
REMARK  147  A    between atoms: _368  and  _369
REMARK  148  A    between atoms: _368  and  _371
REMARK  149  A    between atoms: _371  and  _372
REMARK  150  A    between atoms: _375  and  _377
REMARK  151  A    between atoms: _377  and  _378
REMARK  152  A    between atoms: _377  and  _380
REMARK  153  A    between atoms: _380  and  _381
REMARK  154  A    between atoms: _384  and  _386
REMARK  155  A    between atoms: _386  and  _387
REMARK  156  A    between atoms: _386  and  _389
REMARK  157  A    between atoms: _389  and  _390
REMARK  158  A    between atoms: _396  and  _398
REMARK  159  A    between atoms: _398  and  _399
REMARK  160  A    between atoms: _398  and  _401
REMARK  161  A    between atoms: _401  and  _402
REMARK  162  A    between atoms: _407  and  _408
REMARK  163  A    between atoms: _410  and  _412
REMARK  164  A    between atoms: _412  and  _413
REMARK  165  A    between atoms: _412  and  _415
REMARK  166  A    between atoms: _418  and  _420
REMARK  167  A    between atoms: _420  and  _421
REMARK  168  A    between atoms: _420  and  _423
REMARK  169  A    between atoms: _423  and  _424
REMARK  170  A    between atoms: _427  and  _429
REMARK  171  A    between atoms: _429  and  _430
REMARK  172  A    between atoms: _429  and  _432
REMARK  173  A    between atoms: _432  and  _433
REMARK  174  A    between atoms: _433  and  _434
REMARK  175  A    between atoms: _434  and  _435
REMARK  176  A    between atoms: _435  and  _436
REMARK  177  A    between atoms: _440  and  _442
REMARK  178  A    between atoms: _442  and  _443
REMARK  179  A    between atoms: _445  and  _447
REMARK  180  A    between atoms: _447  and  _448
REMARK  181  A    between atoms: _450  and  _452
REMARK  182  A    between atoms: _452  and  _453
REMARK  183  A    between atoms: _452  and  _455
REMARK  184  A    between atoms: _455  and  _456
REMARK  185  A    between atoms: _459  and  _461
REMARK  186  A    between atoms: _461  and  _462
REMARK  187  A    between atoms: _461  and  _464
REMARK  188  A    between atoms: _464  and  _465
REMARK  189  A    between atoms: _468  and  _470
REMARK  190  A    between atoms: _470  and  _471
REMARK  191  A    between atoms: _470  and  _473
REMARK  192  A    between atoms: _473  and  _474
REMARK                            x       y       z     vdW  Elec       q    Type
REMARK                         _______ _______ _______ _____ _____    ______ ____
ROOT
ATOM      1  C   GLY A   4      48.876  -3.552   0.023  0.00  0.00    +0.243 C 
ATOM      2  N   ASP A   5      48.679  -2.385   0.635  0.00  0.00    -0.296 N 
ATOM      3  H   ASP A   5      49.288  -2.123   1.437  0.00  0.00    +0.150 HD
ATOM      4  O   GLY A   4      48.080  -4.020  -0.820  0.00  0.00    -0.273 OA
ENDROOT
BRANCH   2   5
ATOM      5  CA  ASP A   5      47.636  -1.471   0.210  0.00  0.00    +0.160 C 
BRANCH   5   6
ATOM      6  C   ASP A   5      48.080  -0.058   0.516  0.00  0.00    +0.241 C 
ATOM      7  O   ASP A   5      48.697   0.182   1.527  0.00  0.00    -0.273 OA
ATOM      8  N   ILE A   6      47.745   0.883  -0.352  0.00  0.00    -0.297 N 
ATOM      9  H   ILE A   6      47.329   0.621  -1.269  0.00  0.00    +0.150 HD
BRANCH   8  10
ATOM     10  CA  ILE A   6      47.958   2.276  -0.025  0.00  0.00    +0.149 C 
BRANCH  10  11
ATOM     11  C   ILE A   6      46.591   2.913  -0.103  0.00  0.00    +0.241 C 
ATOM     12  N   PHE A   7      46.093   3.385   1.046  0.00  0.00    -0.298 N 
ATOM     13  H   PHE A   7      46.600   3.208   1.937  0.00  0.00    +0.150 HD
ATOM     14  O   ILE A   6      45.944   2.902  -1.173  0.00  0.00    -0.273 OA
BRANCH  12  15
ATOM     15  CA  PHE A   7      44.860   4.137   1.064  0.00  0.00    +0.141 C 
BRANCH  15  16
ATOM     16  C   PHE A   7      45.111   5.636   0.909  0.00  0.00    +0.227 C 
ATOM     17  O   PHE A   7      46.069   6.185   1.466  0.00  0.00    -0.286 OA
ENDBRANCH  15  16
BRANCH  15  18
ATOM     18  CB  PHE A   7      44.135   3.939   2.409  0.00  0.00    +0.054 C 
BRANCH  18  19
ATOM     19  CG  PHE A   7      43.661   2.532   2.630  0.00  0.00    -0.020 A 
ATOM     20  CD2 PHE A   7      44.538   1.552   3.084  0.00  0.00    -0.004 A 
ATOM     21  CE2 PHE A   7      44.102   0.214   3.310  0.00  0.00    -0.000 A 
ATOM     22  CZ  PHE A   7      42.767  -0.129   3.057  0.00  0.00    -0.000 A 
ATOM     23  CE1 PHE A   7      41.879   0.854   2.633  0.00  0.00    -0.000 A 
ATOM     24  CD1 PHE A   7      42.322   2.177   2.397  0.00  0.00    -0.004 A 
ENDBRANCH  18  19
ENDBRANCH  15  18
ENDBRANCH  12  15
ENDBRANCH  10  11
BRANCH  10  25
ATOM     25  CB  ILE A   6      48.899   2.984  -1.037  0.00  0.00    +0.027 C 
ATOM     26  CG2 ILE A   6      48.996   4.488  -0.700  0.00  0.00    +0.002 C 
BRANCH  25  27
ATOM     27  CG1 ILE A   6      50.267   2.324  -1.111  0.00  0.00    +0.002 C 
ATOM     28  CD1 ILE A   6      51.125   2.969  -2.248  0.00  0.00    +0.000 C 
ENDBRANCH  25  27
ENDBRANCH  10  25
ENDBRANCH   8  10
ENDBRANCH   5   6
BRANCH   5  29
ATOM     29  CB  ASP A   5      46.355  -1.711   0.992  0.00  0.00    +0.143 C 
BRANCH  29  30
ATOM     30  CG  ASP A   5      45.389  -2.638   0.294  0.00  0.00    +0.367 C 
ATOM     31  OD2 ASP A   5      44.641  -3.308   1.025  0.00  0.00    -0.246 OA
ATOM     32  OD1 ASP A   5      45.339  -2.685  -0.956  0.00  0.00    -0.246 OA
ENDBRANCH  29  30
ENDBRANCH   5  29
ENDBRANCH   2   5
BRANCH   1  33
ATOM     33  CA  GLY A   4      50.131  -4.299   0.432  0.00  0.00    +0.176 C 
BRANCH  33  36
ATOM     34  C   GLY A   3      50.121  -6.672   0.936  0.00  0.00    +0.243 C 
ATOM     35  O   GLY A   3      50.190  -6.484   2.176  0.00  0.00    -0.273 OA
ATOM     36  N   GLY A   4      50.114  -5.692   0.045  0.00  0.00    -0.295 N 
ATOM     37  H   GLY A   4      50.096  -5.932  -0.967  0.00  0.00    +0.150 HD
BRANCH  34  38
ATOM     38  CA  GLY A   3      50.037  -8.067   0.357  0.00  0.00    +0.176 C 
BRANCH  38  40
ATOM     39  C   LYS A   2      49.828 -10.333   1.185  0.00  0.00    +0.241 C 
ATOM     40  N   GLY A   3      49.746  -9.031   1.435  0.00  0.00    -0.295 N 
ATOM     41  H   GLY A   3      49.479  -8.694   2.382  0.00  0.00    +0.150 HD
ATOM     42  O   LYS A   2      50.058 -10.801   0.056  0.00  0.00    -0.273 OA
BRANCH  39  43
ATOM     43  CA  LYS A   2      49.657 -11.250   2.362  0.00  0.00    +0.149 C 
BRANCH  43  46
ATOM     44  C   LEU A   1      48.184 -13.146   2.664  0.00  0.00    +0.238 C 
ATOM     45  O   LEU A   1      47.758 -12.676   3.727  0.00  0.00    -0.274 OA
ATOM     46  N   LYS A   2      49.088 -12.520   1.920  0.00  0.00    -0.297 N 
ATOM     47  H   LYS A   2      49.393 -12.937   1.017  0.00  0.00    +0.150 HD
BRANCH  44  48
ATOM     48  CA  LEU A   1      47.667 -14.491   2.148  0.00  0.00    +0.145 C 
BRANCH  48  49
ATOM     49  N   LEU A   1      47.161 -15.173   3.337  0.00  0.00    -0.238 NA
ATOM     50  H   LEU A   1      46.589 -14.625   4.011  0.00  0.00    +0.142 HD
ENDBRANCH  48  49
BRANCH  48  51
ATOM     51  CB  LEU A   1      46.541 -14.250   1.161  0.00  0.00    +0.026 C 
BRANCH  51  52
ATOM     52  CG  LEU A   1      45.769 -15.395   0.500  0.00  0.00    +0.002 C 
ATOM     53  CD2 LEU A   1      44.601 -14.823  -0.319  0.00  0.00    +0.000 C 
ATOM     54  CD1 LEU A   1      46.695 -16.191  -0.396  0.00  0.00    +0.000 C 
ENDBRANCH  51  52
ENDBRANCH  48  51
ENDBRANCH  44  48
ENDBRANCH  43  46
BRANCH  43  55
ATOM     55  CB  LYS A   2      51.035 -11.454   3.007  0.00  0.00    +0.029 C 
BRANCH  55  56
ATOM     56  CG  LYS A   2      51.003 -12.062   4.383  0.00  0.00    +0.000 C 
BRANCH  56  57
ATOM     57  CD  LYS A   2      52.373 -12.600   4.737  0.00  0.00    -0.024 C 
BRANCH  57  58
ATOM     58  CE  LYS A   2      53.157 -11.599   5.548  0.00  0.00    -0.086 C 
BRANCH  58  59
ATOM     59  NZ  LYS A   2      52.615 -11.518   6.956  0.00  0.00    +0.380 N 
ATOM     60  HZ1 LYS A   2      53.167 -10.824   7.499  0.00  0.00    -0.089 HD
ATOM     61  HZ2 LYS A   2      52.688 -12.452   7.408  0.00  0.00    -0.089 HD
ATOM     62  HZ3 LYS A   2      51.618 -11.223   6.926  0.00  0.00    -0.089 HD
ENDBRANCH  58  59
ENDBRANCH  57  58
ENDBRANCH  56  57
ENDBRANCH  55  56
ENDBRANCH  43  55
ENDBRANCH  39  43
ENDBRANCH  38  40
ENDBRANCH  34  38
ENDBRANCH  33  36
ENDBRANCH   1  33
TORSDOF 27
REMARK  Name = ../refined-set-2016/4ggz/4ggz_pocket.pdb
REMARK  192 active torsions:
REMARK  status: ('A' for Active; 'I' for Inactive)
REMARK    1  A    between atoms: _1  and  _3
REMARK    2  A    between atoms: _3  and  _4
REMARK    3  A    between atoms: _3  and  _6
REMARK    4  A    between atoms: _6  and  _7
REMARK    5  A    between atoms: _7  and  _8
REMARK    6  A    between atoms: _8  and  _9
REMARK    7  A    between atoms: _9  and  _10
REMARK    8  A    between atoms: _14  and  _16
REMARK    9  A    between atoms: _16  and  _17
REMARK   10  A    between atoms: _16  and  _19
REMARK   11  A    between atoms: _19  and  _20
REMARK   12  A    between atoms: _25  and  _27
REMARK   13  A    between atoms: _27  and  _28
REMARK   14  A    between atoms: _27  and  _30
REMARK   15  A    between atoms: _30  and  _31
REMARK   16  A    between atoms: _31  and  _32
REMARK   17  A    between atoms: _35  and  _37
REMARK   18  A    between atoms: _37  and  _38
REMARK   19  A    between atoms: _37  and  _40
REMARK   20  A    between atoms: _40  and  _41
REMARK   21  A    between atoms: _41  and  _42
REMARK   22  A    between atoms: _42  and  _43
REMARK   23  A    between atoms: _52  and  _54
REMARK   24  A    between atoms: _54  and  _55
REMARK   25  A    between atoms: _57  and  _59
REMARK   26  A    between atoms: _59  and  _60
REMARK   27  A    between atoms: _59  and  _62
REMARK   28  A    between atoms: _62  and  _63
REMARK   29  A    between atoms: _65  and  _67
REMARK   30  A    between atoms: _67  and  _68
REMARK   31  A    between atoms: _67  and  _70
REMARK   32  A    between atoms: _70  and  _71
REMARK   33  A    between atoms: _71  and  _72
REMARK   34  A    between atoms: _75  and  _77
REMARK   35  A    between atoms: _77  and  _78
REMARK   36  A    between atoms: _77  and  _80
REMARK   37  A    between atoms: _80  and  _81
REMARK   38  A    between atoms: _87  and  _89
REMARK   39  A    between atoms: _89  and  _90
REMARK   40  A    between atoms: _89  and  _92
REMARK   41  A    between atoms: _92  and  _93
REMARK   42  A    between atoms: _96  and  _98
REMARK   43  A    between atoms: _98  and  _99
REMARK   44  A    between atoms: _98  and  _101
REMARK   45  A    between atoms: _101  and  _102
REMARK   46  A    between atoms: _107  and  _109
REMARK   47  A    between atoms: _109  and  _110
REMARK   48  A    between atoms: _109  and  _112
REMARK   49  A    between atoms: _112  and  _113
REMARK   50  A    between atoms: _118  and  _120
REMARK   51  A    between atoms: _120  and  _121
REMARK   52  A    between atoms: _124  and  _126
REMARK   53  A    between atoms: _126  and  _127
REMARK   54  A    between atoms: _126  and  _129
REMARK   55  A    between atoms: _129  and  _130
REMARK   56  A    between atoms: _130  and  _131
REMARK   57  A    between atoms: _136  and  _138
REMARK   58  A    between atoms: _138  and  _139
REMARK   59  A    between atoms: _141  and  _143
REMARK   60  A    between atoms: _143  and  _144
REMARK   61  A    between atoms: _143  and  _146
REMARK   62  A    between atoms: _146  and  _147
REMARK   63  A    between atoms: _153  and  _155
REMARK   64  A    between atoms: _155  and  _156
REMARK   65  A    between atoms: _159  and  _161
REMARK   66  A    between atoms: _161  and  _162
REMARK   67  A    between atoms: _161  and  _164
REMARK   68  A    between atoms: _164  and  _165
REMARK   69  A    between atoms: _165  and  _259
REMARK   70  A    between atoms: _166  and  _168
REMARK   71  A    between atoms: _168  and  _169
REMARK   72  A    between atoms: _168  and  _171
REMARK   73  A    between atoms: _171  and  _172
REMARK   74  A    between atoms: _172  and  _173
REMARK   75  A    between atoms: _178  and  _180
REMARK   76  A    between atoms: _180  and  _181
REMARK   77  A    between atoms: _183  and  _185
REMARK   78  A    between atoms: _185  and  _186
REMARK   79  A    between atoms: _185  and  _188
REMARK   80  A    between atoms: _188  and  _189
REMARK   81  A    between atoms: _192  and  _194
REMARK   82  A    between atoms: _194  and  _195
REMARK   83  A    between atoms: _194  and  _197
REMARK   84  A    between atoms: _197  and  _198
REMARK   85  A    between atoms: _203  and  _204
REMARK   86  A    between atoms: _206  and  _208
REMARK   87  A    between atoms: _208  and  _209
REMARK   88  A    between atoms: _208  and  _211
REMARK   89  A    between atoms: _214  and  _216
REMARK   90  A    between atoms: _216  and  _217
REMARK   91  A    between atoms: _216  and  _219
REMARK   92  A    between atoms: _219  and  _220
REMARK   93  A    between atoms: _223  and  _225
REMARK   94  A    between atoms: _225  and  _226
REMARK   95  A    between atoms: _225  and  _228
REMARK   96  A    between atoms: _228  and  _229
REMARK   97  A    between atoms: _235  and  _237
REMARK   98  A    between atoms: _237  and  _238
REMARK   99  A    between atoms: _241  and  _243
REMARK  100  A    between atoms: _243  and  _244
REMARK  101  A    between atoms: _243  and  _246
REMARK  102  A    between atoms: _246  and  _247
REMARK  103  A    between atoms: _247  and  _248
REMARK  104  A    between atoms: _253  and  _255
REMARK  105  A    between atoms: _255  and  _256
REMARK  106  A    between atoms: _255  and  _258
REMARK  107  A    between atoms: _258  and  _259
REMARK  108  A    between atoms: _260  and  _262
REMARK  109  A    between atoms: _262  and  _263
REMARK  110  A    between atoms: _262  and  _265
REMARK  111  A    between atoms: _265  and  _266
REMARK  112  A    between atoms: _271  and  _273
REMARK  113  A    between atoms: _273  and  _274
REMARK  114  A    between atoms: _273  and  _276
REMARK  115  A    between atoms: _276  and  _277
REMARK  116  A    between atoms: _279  and  _281
REMARK  117  A    between atoms: _281  and  _282
REMARK  118  A    between atoms: _281  and  _284
REMARK  119  A    between atoms: _284  and  _285
REMARK  120  A    between atoms: _291  and  _293
REMARK  121  A    between atoms: _293  and  _294
REMARK  122  A    between atoms: _293  and  _296
REMARK  123  A    between atoms: _296  and  _297
REMARK  124  A    between atoms: _300  and  _302
REMARK  125  A    between atoms: _302  and  _303
REMARK  126  A    between atoms: _302  and  _305
REMARK  127  A    between atoms: _305  and  _306
REMARK  128  A    between atoms: _306  and  _307
REMARK  129  A    between atoms: _307  and  _308
REMARK  130  A    between atoms: _317  and  _319
REMARK  131  A    between atoms: _319  and  _320
REMARK  132  A    between atoms: _319  and  _322
REMARK  133  A    between atoms: _322  and  _323
REMARK  134  A    between atoms: _333  and  _335
REMARK  135  A    between atoms: _335  and  _336
REMARK  136  A    between atoms: _335  and  _338
REMARK  137  A    between atoms: _338  and  _339
REMARK  138  A    between atoms: _342  and  _344
REMARK  139  A    between atoms: _344  and  _345
REMARK  140  A    between atoms: _344  and  _347
REMARK  141  A    between atoms: _347  and  _348
REMARK  142  A    between atoms: _350  and  _352
REMARK  143  A    between atoms: _352  and  _353
REMARK  144  A    between atoms: _352  and  _355
REMARK  145  A    between atoms: _355  and  _356
REMARK  146  A    between atoms: _366  and  _368
REMARK  147  A    between atoms: _368  and  _369
REMARK  148  A    between atoms: _368  and  _371
REMARK  149  A    between atoms: _371  and  _372
REMARK  150  A    between atoms: _375  and  _377
REMARK  151  A    between atoms: _377  and  _378
REMARK  152  A    between atoms: _377  and  _380
REMARK  153  A    between atoms: _380  and  _381
REMARK  154  A    between atoms: _384  and  _386
REMARK  155  A    between atoms: _386  and  _387
REMARK  156  A    between atoms: _386  and  _389
REMARK  157  A    between atoms: _389  and  _390
REMARK  158  A    between atoms: _396  and  _398
REMARK  159  A    between atoms: _398  and  _399
REMARK  160  A    between atoms: _398  and  _401
REMARK  161  A    between atoms: _401  and  _402
REMARK  162  A    between atoms: _407  and  _408
REMARK  163  A    between atoms: _410  and  _412
REMARK  164  A    between atoms: _412  and  _413
REMARK  165  A    between atoms: _412  and  _415
REMARK  166  A    between atoms: _418  and  _420
REMARK  167  A    between atoms: _420  and  _421
REMARK  168  A    between atoms: _420  and  _423
REMARK  169  A    between atoms: _423  and  _424
REMARK  170  A    between atoms: _427  and  _429
REMARK  171  A    between atoms: _429  and  _430
REMARK  172  A    between atoms: _429  and  _432
REMARK  173  A    between atoms: _432  and  _433
REMARK  174  A    between atoms: _433  and  _434
REMARK  175  A    between atoms: _434  and  _435
REMARK  176  A    between atoms: _435  and  _436
REMARK  177  A    between atoms: _440  and  _442
REMARK  178  A    between atoms: _442  and  _443
REMARK  179  A    between atoms: _445  and  _447
REMARK  180  A    between atoms: _447  and  _448
REMARK  181  A    between atoms: _450  and  _452
REMARK  182  A    between atoms: _452  and  _453
REMARK  183  A    between atoms: _452  and  _455
REMARK  184  A    between atoms: _455  and  _456
REMARK  185  A    between atoms: _459  and  _461
REMARK  186  A    between atoms: _461  and  _462
REMARK  187  A    between atoms: _461  and  _464
REMARK  188  A    between atoms: _464  and  _465
REMARK  189  A    between atoms: _468  and  _470
REMARK  190  A    between atoms: _470  and  _471
REMARK  191  A    between atoms: _470  and  _473
REMARK  192  A    between atoms: _473  and  _474
REMARK                            x       y       z     vdW  Elec       q    Type
REMARK                         _______ _______ _______ _____ _____    ______ ____
ROOT
ATOM      1  O   HOH     1      40.759  -4.117  -7.905  0.00  0.00    +0.000 OA
ENDROOT
TORSDOF 0
REMARK  Name = ../refined-set-2016/4ggz/4ggz_pocket.pdb
REMARK  192 active torsions:
REMARK  status: ('A' for Active; 'I' for Inactive)
REMARK    1  A    between atoms: _1  and  _3
REMARK    2  A    between atoms: _3  and  _4
REMARK    3  A    between atoms: _3  and  _6
REMARK    4  A    between atoms: _6  and  _7
REMARK    5  A    between atoms: _7  and  _8
REMARK    6  A    between atoms: _8  and  _9
REMARK    7  A    between atoms: _9  and  _10
REMARK    8  A    between atoms: _14  and  _16
REMARK    9  A    between atoms: _16  and  _17
REMARK   10  A    between atoms: _16  and  _19
REMARK   11  A    between atoms: _19  and  _20
REMARK   12  A    between atoms: _25  and  _27
REMARK   13  A    between atoms: _27  and  _28
REMARK   14  A    between atoms: _27  and  _30
REMARK   15  A    between atoms: _30  and  _31
REMARK   16  A    between atoms: _31  and  _32
REMARK   17  A    between atoms: _35  and  _37
REMARK   18  A    between atoms: _37  and  _38
REMARK   19  A    between atoms: _37  and  _40
REMARK   20  A    between atoms: _40  and  _41
REMARK   21  A    between atoms: _41  and  _42
REMARK   22  A    between atoms: _42  and  _43
REMARK   23  A    between atoms: _52  and  _54
REMARK   24  A    between atoms: _54  and  _55
REMARK   25  A    between atoms: _57  and  _59
REMARK   26  A    between atoms: _59  and  _60
REMARK   27  A    between atoms: _59  and  _62
REMARK   28  A    between atoms: _62  and  _63
REMARK   29  A    between atoms: _65  and  _67
REMARK   30  A    between atoms: _67  and  _68
REMARK   31  A    between atoms: _67  and  _70
REMARK   32  A    between atoms: _70  and  _71
REMARK   33  A    between atoms: _71  and  _72
REMARK   34  A    between atoms: _75  and  _77
REMARK   35  A    between atoms: _77  and  _78
REMARK   36  A    between atoms: _77  and  _80
REMARK   37  A    between atoms: _80  and  _81
REMARK   38  A    between atoms: _87  and  _89
REMARK   39  A    between atoms: _89  and  _90
REMARK   40  A    between atoms: _89  and  _92
REMARK   41  A    between atoms: _92  and  _93
REMARK   42  A    between atoms: _96  and  _98
REMARK   43  A    between atoms: _98  and  _99
REMARK   44  A    between atoms: _98  and  _101
REMARK   45  A    between atoms: _101  and  _102
REMARK   46  A    between atoms: _107  and  _109
REMARK   47  A    between atoms: _109  and  _110
REMARK   48  A    between atoms: _109  and  _112
REMARK   49  A    between atoms: _112  and  _113
REMARK   50  A    between atoms: _118  and  _120
REMARK   51  A    between atoms: _120  and  _121
REMARK   52  A    between atoms: _124  and  _126
REMARK   53  A    between atoms: _126  and  _127
REMARK   54  A    between atoms: _126  and  _129
REMARK   55  A    between atoms: _129  and  _130
REMARK   56  A    between atoms: _130  and  _131
REMARK   57  A    between atoms: _136  and  _138
REMARK   58  A    between atoms: _138  and  _139
REMARK   59  A    between atoms: _141  and  _143
REMARK   60  A    between atoms: _143  and  _144
REMARK   61  A    between atoms: _143  and  _146
REMARK   62  A    between atoms: _146  and  _147
REMARK   63  A    between atoms: _153  and  _155
REMARK   64  A    between atoms: _155  and  _156
REMARK   65  A    between atoms: _159  and  _161
REMARK   66  A    between atoms: _161  and  _162
REMARK   67  A    between atoms: _161  and  _164
REMARK   68  A    between atoms: _164  and  _165
REMARK   69  A    between atoms: _165  and  _259
REMARK   70  A    between atoms: _166  and  _168
REMARK   71  A    between atoms: _168  and  _169
REMARK   72  A    between atoms: _168  and  _171
REMARK   73  A    between atoms: _171  and  _172
REMARK   74  A    between atoms: _172  and  _173
REMARK   75  A    between atoms: _178  and  _180
REMARK   76  A    between atoms: _180  and  _181
REMARK   77  A    between atoms: _183  and  _185
REMARK   78  A    between atoms: _185  and  _186
REMARK   79  A    between atoms: _185  and  _188
REMARK   80  A    between atoms: _188  and  _189
REMARK   81  A    between atoms: _192  and  _194
REMARK   82  A    between atoms: _194  and  _195
REMARK   83  A    between atoms: _194  and  _197
REMARK   84  A    between atoms: _197  and  _198
REMARK   85  A    between atoms: _203  and  _204
REMARK   86  A    between atoms: _206  and  _208
REMARK   87  A    between atoms: _208  and  _209
REMARK   88  A    between atoms: _208  and  _211
REMARK   89  A    between atoms: _214  and  _216
REMARK   90  A    between atoms: _216  and  _217
REMARK   91  A    between atoms: _216  and  _219
REMARK   92  A    between atoms: _219  and  _220
REMARK   93  A    between atoms: _223  and  _225
REMARK   94  A    between atoms: _225  and  _226
REMARK   95  A    between atoms: _225  and  _228
REMARK   96  A    between atoms: _228  and  _229
REMARK   97  A    between atoms: _235  and  _237
REMARK   98  A    between atoms: _237  and  _238
REMARK   99  A    between atoms: _241  and  _243
REMARK  100  A    between atoms: _243  and  _244
REMARK  101  A    between atoms: _243  and  _246
REMARK  102  A    between atoms: _246  and  _247
REMARK  103  A    between atoms: _247  and  _248
REMARK  104  A    between atoms: _253  and  _255
REMARK  105  A    between atoms: _255  and  _256
REMARK  106  A    between atoms: _255  and  _258
REMARK  107  A    between atoms: _258  and  _259
REMARK  108  A    between atoms: _260  and  _262
REMARK  109  A    between atoms: _262  and  _263
REMARK  110  A    between atoms: _262  and  _265
REMARK  111  A    between atoms: _265  and  _266
REMARK  112  A    between atoms: _271  and  _273
REMARK  113  A    between atoms: _273  and  _274
REMARK  114  A    between atoms: _273  and  _276
REMARK  115  A    between atoms: _276  and  _277
REMARK  116  A    between atoms: _279  and  _281
REMARK  117  A    between atoms: _281  and  _282
REMARK  118  A    between atoms: _281  and  _284
REMARK  119  A    between atoms: _284  and  _285
REMARK  120  A    between atoms: _291  and  _293
REMARK  121  A    between atoms: _293  and  _294
REMARK  122  A    between atoms: _293  and  _296
REMARK  123  A    between atoms: _296  and  _297
REMARK  124  A    between atoms: _300  and  _302
REMARK  125  A    between atoms: _302  and  _303
REMARK  126  A    between atoms: _302  and  _305
REMARK  127  A    between atoms: _305  and  _306
REMARK  128  A    between atoms: _306  and  _307
REMARK  129  A    between atoms: _307  and  _308
REMARK  130  A    between atoms: _317  and  _319
REMARK  131  A    between atoms: _319  and  _320
REMARK  132  A    between atoms: _319  and  _322
REMARK  133  A    between atoms: _322  and  _323
REMARK  134  A    between atoms: _333  and  _335
REMARK  135  A    between atoms: _335  and  _336
REMARK  136  A    between atoms: _335  and  _338
REMARK  137  A    between atoms: _338  and  _339
REMARK  138  A    between atoms: _342  and  _344
REMARK  139  A    between atoms: _344  and  _345
REMARK  140  A    between atoms: _344  and  _347
REMARK  141  A    between atoms: _347  and  _348
REMARK  142  A    between atoms: _350  and  _352
REMARK  143  A    between atoms: _352  and  _353
REMARK  144  A    between atoms: _352  and  _355
REMARK  145  A    between atoms: _355  and  _356
REMARK  146  A    between atoms: _366  and  _368
REMARK  147  A    between atoms: _368  and  _369
REMARK  148  A    between atoms: _368  and  _371
REMARK  149  A    between atoms: _371  and  _372
REMARK  150  A    between atoms: _375  and  _377
REMARK  151  A    between atoms: _377  and  _378
REMARK  152  A    between atoms: _377  and  _380
REMARK  153  A    between atoms: _380  and  _381
REMARK  154  A    between atoms: _384  and  _386
REMARK  155  A    between atoms: _386  and  _387
REMARK  156  A    between atoms: _386  and  _389
REMARK  157  A    between atoms: _389  and  _390
REMARK  158  A    between atoms: _396  and  _398
REMARK  159  A    between atoms: _398  and  _399
REMARK  160  A    between atoms: _398  and  _401
REMARK  161  A    between atoms: _401  and  _402
REMARK  162  A    between atoms: _407  and  _408
REMARK  163  A    between atoms: _410  and  _412
REMARK  164  A    between atoms: _412  and  _413
REMARK  165  A    between atoms: _412  and  _415
REMARK  166  A    between atoms: _418  and  _420
REMARK  167  A    between atoms: _420  and  _421
REMARK  168  A    between atoms: _420  and  _423
REMARK  169  A    between atoms: _423  and  _424
REMARK  170  A    between atoms: _427  and  _429
REMARK  171  A    between atoms: _429  and  _430
REMARK  172  A    between atoms: _429  and  _432
REMARK  173  A    between atoms: _432  and  _433
REMARK  174  A    between atoms: _433  and  _434
REMARK  175  A    between atoms: _434  and  _435
REMARK  176  A    between atoms: _435  and  _436
REMARK  177  A    between atoms: _440  and  _442
REMARK  178  A    between atoms: _442  and  _443
REMARK  179  A    between atoms: _445  and  _447
REMARK  180  A    between atoms: _447  and  _448
REMARK  181  A    between atoms: _450  and  _452
REMARK  182  A    between atoms: _452  and  _453
REMARK  183  A    between atoms: _452  and  _455
REMARK  184  A    between atoms: _455  and  _456
REMARK  185  A    between atoms: _459  and  _461
REMARK  186  A    between atoms: _461  and  _462
REMARK  187  A    between atoms: _461  and  _464
REMARK  188  A    between atoms: _464  and  _465
REMARK  189  A    between atoms: _468  and  _470
REMARK  190  A    between atoms: _470  and  _471
REMARK  191  A    between atoms: _470  and  _473
REMARK  192  A    between atoms: _473  and  _474
REMARK                            x       y       z     vdW  Elec       q    Type
REMARK                         _______ _______ _______ _____ _____    ______ ____
ROOT
ATOM      1  O   HOH     1      33.603  -6.423   1.931  0.00  0.00    +0.000 OA
ENDROOT
TORSDOF 0
REMARK  Name = ../refined-set-2016/4ggz/4ggz_pocket.pdb
REMARK  192 active torsions:
REMARK  status: ('A' for Active; 'I' for Inactive)
REMARK    1  A    between atoms: _1  and  _3
REMARK    2  A    between atoms: _3  and  _4
REMARK    3  A    between atoms: _3  and  _6
REMARK    4  A    between atoms: _6  and  _7
REMARK    5  A    between atoms: _7  and  _8
REMARK    6  A    between atoms: _8  and  _9
REMARK    7  A    between atoms: _9  and  _10
REMARK    8  A    between atoms: _14  and  _16
REMARK    9  A    between atoms: _16  and  _17
REMARK   10  A    between atoms: _16  and  _19
REMARK   11  A    between atoms: _19  and  _20
REMARK   12  A    between atoms: _25  and  _27
REMARK   13  A    between atoms: _27  and  _28
REMARK   14  A    between atoms: _27  and  _30
REMARK   15  A    between atoms: _30  and  _31
REMARK   16  A    between atoms: _31  and  _32
REMARK   17  A    between atoms: _35  and  _37
REMARK   18  A    between atoms: _37  and  _38
REMARK   19  A    between atoms: _37  and  _40
REMARK   20  A    between atoms: _40  and  _41
REMARK   21  A    between atoms: _41  and  _42
REMARK   22  A    between atoms: _42  and  _43
REMARK   23  A    between atoms: _52  and  _54
REMARK   24  A    between atoms: _54  and  _55
REMARK   25  A    between atoms: _57  and  _59
REMARK   26  A    between atoms: _59  and  _60
REMARK   27  A    between atoms: _59  and  _62
REMARK   28  A    between atoms: _62  and  _63
REMARK   29  A    between atoms: _65  and  _67
REMARK   30  A    between atoms: _67  and  _68
REMARK   31  A    between atoms: _67  and  _70
REMARK   32  A    between atoms: _70  and  _71
REMARK   33  A    between atoms: _71  and  _72
REMARK   34  A    between atoms: _75  and  _77
REMARK   35  A    between atoms: _77  and  _78
REMARK   36  A    between atoms: _77  and  _80
REMARK   37  A    between atoms: _80  and  _81
REMARK   38  A    between atoms: _87  and  _89
REMARK   39  A    between atoms: _89  and  _90
REMARK   40  A    between atoms: _89  and  _92
REMARK   41  A    between atoms: _92  and  _93
REMARK   42  A    between atoms: _96  and  _98
REMARK   43  A    between atoms: _98  and  _99
REMARK   44  A    between atoms: _98  and  _101
REMARK   45  A    between atoms: _101  and  _102
REMARK   46  A    between atoms: _107  and  _109
REMARK   47  A    between atoms: _109  and  _110
REMARK   48  A    between atoms: _109  and  _112
REMARK   49  A    between atoms: _112  and  _113
REMARK   50  A    between atoms: _118  and  _120
REMARK   51  A    between atoms: _120  and  _121
REMARK   52  A    between atoms: _124  and  _126
REMARK   53  A    between atoms: _126  and  _127
REMARK   54  A    between atoms: _126  and  _129
REMARK   55  A    between atoms: _129  and  _130
REMARK   56  A    between atoms: _130  and  _131
REMARK   57  A    between atoms: _136  and  _138
REMARK   58  A    between atoms: _138  and  _139
REMARK   59  A    between atoms: _141  and  _143
REMARK   60  A    between atoms: _143  and  _144
REMARK   61  A    between atoms: _143  and  _146
REMARK   62  A    between atoms: _146  and  _147
REMARK   63  A    between atoms: _153  and  _155
REMARK   64  A    between atoms: _155  and  _156
REMARK   65  A    between atoms: _159  and  _161
REMARK   66  A    between atoms: _161  and  _162
REMARK   67  A    between atoms: _161  and  _164
REMARK   68  A    between atoms: _164  and  _165
REMARK   69  A    between atoms: _165  and  _259
REMARK   70  A    between atoms: _166  and  _168
REMARK   71  A    between atoms: _168  and  _169
REMARK   72  A    between atoms: _168  and  _171
REMARK   73  A    between atoms: _171  and  _172
REMARK   74  A    between atoms: _172  and  _173
REMARK   75  A    between atoms: _178  and  _180
REMARK   76  A    between atoms: _180  and  _181
REMARK   77  A    between atoms: _183  and  _185
REMARK   78  A    between atoms: _185  and  _186
REMARK   79  A    between atoms: _185  and  _188
REMARK   80  A    between atoms: _188  and  _189
REMARK   81  A    between atoms: _192  and  _194
REMARK   82  A    between atoms: _194  and  _195
REMARK   83  A    between atoms: _194  and  _197
REMARK   84  A    between atoms: _197  and  _198
REMARK   85  A    between atoms: _203  and  _204
REMARK   86  A    between atoms: _206  and  _208
REMARK   87  A    between atoms: _208  and  _209
REMARK   88  A    between atoms: _208  and  _211
REMARK   89  A    between atoms: _214  and  _216
REMARK   90  A    between atoms: _216  and  _217
REMARK   91  A    between atoms: _216  and  _219
REMARK   92  A    between atoms: _219  and  _220
REMARK   93  A    between atoms: _223  and  _225
REMARK   94  A    between atoms: _225  and  _226
REMARK   95  A    between atoms: _225  and  _228
REMARK   96  A    between atoms: _228  and  _229
REMARK   97  A    between atoms: _235  and  _237
REMARK   98  A    between atoms: _237  and  _238
REMARK   99  A    between atoms: _241  and  _243
REMARK  100  A    between atoms: _243  and  _244
REMARK  101  A    between atoms: _243  and  _246
REMARK  102  A    between atoms: _246  and  _247
REMARK  103  A    between atoms: _247  and  _248
REMARK  104  A    between atoms: _253  and  _255
REMARK  105  A    between atoms: _255  and  _256
REMARK  106  A    between atoms: _255  and  _258
REMARK  107  A    between atoms: _258  and  _259
REMARK  108  A    between atoms: _260  and  _262
REMARK  109  A    between atoms: _262  and  _263
REMARK  110  A    between atoms: _262  and  _265
REMARK  111  A    between atoms: _265  and  _266
REMARK  112  A    between atoms: _271  and  _273
REMARK  113  A    between atoms: _273  and  _274
REMARK  114  A    between atoms: _273  and  _276
REMARK  115  A    between atoms: _276  and  _277
REMARK  116  A    between atoms: _279  and  _281
REMARK  117  A    between atoms: _281  and  _282
REMARK  118  A    between atoms: _281  and  _284
REMARK  119  A    between atoms: _284  and  _285
REMARK  120  A    between atoms: _291  and  _293
REMARK  121  A    between atoms: _293  and  _294
REMARK  122  A    between atoms: _293  and  _296
REMARK  123  A    between atoms: _296  and  _297
REMARK  124  A    between atoms: _300  and  _302
REMARK  125  A    between atoms: _302  and  _303
REMARK  126  A    between atoms: _302  and  _305
REMARK  127  A    between atoms: _305  and  _306
REMARK  128  A    between atoms: _306  and  _307
REMARK  129  A    between atoms: _307  and  _308
REMARK  130  A    between atoms: _317  and  _319
REMARK  131  A    between atoms: _319  and  _320
REMARK  132  A    between atoms: _319  and  _322
REMARK  133  A    between atoms: _322  and  _323
REMARK  134  A    between atoms: _333  and  _335
REMARK  135  A    between atoms: _335  and  _336
REMARK  136  A    between atoms: _335  and  _338
REMARK  137  A    between atoms: _338  and  _339
REMARK  138  A    between atoms: _342  and  _344
REMARK  139  A    between atoms: _344  and  _345
REMARK  140  A    between atoms: _344  and  _347
REMARK  141  A    between atoms: _347  and  _348
REMARK  142  A    between atoms: _350  and  _352
REMARK  143  A    between atoms: _352  and  _353
REMARK  144  A    between atoms: _352  and  _355
REMARK  145  A    between atoms: _355  and  _356
REMARK  146  A    between atoms: _366  and  _368
REMARK  147  A    between atoms: _368  and  _369
REMARK  148  A    between atoms: _368  and  _371
REMARK  149  A    between atoms: _371  and  _372
REMARK  150  A    between atoms: _375  and  _377
REMARK  151  A    between atoms: _377  and  _378
REMARK  152  A    between atoms: _377  and  _380
REMARK  153  A    between atoms: _380  and  _381
REMARK  154  A    between atoms: _384  and  _386
REMARK  155  A    between atoms: _386  and  _387
REMARK  156  A    between atoms: _386  and  _389
REMARK  157  A    between atoms: _389  and  _390
REMARK  158  A    between atoms: _396  and  _398
REMARK  159  A    between atoms: _398  and  _399
REMARK  160  A    between atoms: _398  and  _401
REMARK  161  A    between atoms: _401  and  _402
REMARK  162  A    between atoms: _407  and  _408
REMARK  163  A    between atoms: _410  and  _412
REMARK  164  A    between atoms: _412  and  _413
REMARK  165  A    between atoms: _412  and  _415
REMARK  166  A    between atoms: _418  and  _420
REMARK  167  A    between atoms: _420  and  _421
REMARK  168  A    between atoms: _420  and  _423
REMARK  169  A    between atoms: _423  and  _424
REMARK  170  A    between atoms: _427  and  _429
REMARK  171  A    between atoms: _429  and  _430
REMARK  172  A    between atoms: _429  and  _432
REMARK  173  A    between atoms: _432  and  _433
REMARK  174  A    between atoms: _433  and  _434
REMARK  175  A    between atoms: _434  and  _435
REMARK  176  A    between atoms: _435  and  _436
REMARK  177  A    between atoms: _440  and  _442
REMARK  178  A    between atoms: _442  and  _443
REMARK  179  A    between atoms: _445  and  _447
REMARK  180  A    between atoms: _447  and  _448
REMARK  181  A    between atoms: _450  and  _452
REMARK  182  A    between atoms: _452  and  _453
REMARK  183  A    between atoms: _452  and  _455
REMARK  184  A    between atoms: _455  and  _456
REMARK  185  A    between atoms: _459  and  _461
REMARK  186  A    between atoms: _461  and  _462
REMARK  187  A    between atoms: _461  and  _464
REMARK  188  A    between atoms: _464  and  _465
REMARK  189  A    between atoms: _468  and  _470
REMARK  190  A    between atoms: _470  and  _471
REMARK  191  A    between atoms: _470  and  _473
REMARK  192  A    between atoms: _473  and  _474
REMARK                            x       y       z     vdW  Elec       q    Type
REMARK                         _______ _______ _______ _____ _____    ______ ____
ROOT
ATOM      1  O   HOH     1      45.992  -0.472  -2.518  0.00  0.00    +0.000 OA
ENDROOT
TORSDOF 0
REMARK  Name = ../refined-set-2016/4ggz/4ggz_pocket.pdb
REMARK  192 active torsions:
REMARK  status: ('A' for Active; 'I' for Inactive)
REMARK    1  A    between atoms: _1  and  _3
REMARK    2  A    between atoms: _3  and  _4
REMARK    3  A    between atoms: _3  and  _6
REMARK    4  A    between atoms: _6  and  _7
REMARK    5  A    between atoms: _7  and  _8
REMARK    6  A    between atoms: _8  and  _9
REMARK    7  A    between atoms: _9  and  _10
REMARK    8  A    between atoms: _14  and  _16
REMARK    9  A    between atoms: _16  and  _17
REMARK   10  A    between atoms: _16  and  _19
REMARK   11  A    between atoms: _19  and  _20
REMARK   12  A    between atoms: _25  and  _27
REMARK   13  A    between atoms: _27  and  _28
REMARK   14  A    between atoms: _27  and  _30
REMARK   15  A    between atoms: _30  and  _31
REMARK   16  A    between atoms: _31  and  _32
REMARK   17  A    between atoms: _35  and  _37
REMARK   18  A    between atoms: _37  and  _38
REMARK   19  A    between atoms: _37  and  _40
REMARK   20  A    between atoms: _40  and  _41
REMARK   21  A    between atoms: _41  and  _42
REMARK   22  A    between atoms: _42  and  _43
REMARK   23  A    between atoms: _52  and  _54
REMARK   24  A    between atoms: _54  and  _55
REMARK   25  A    between atoms: _57  and  _59
REMARK   26  A    between atoms: _59  and  _60
REMARK   27  A    between atoms: _59  and  _62
REMARK   28  A    between atoms: _62  and  _63
REMARK   29  A    between atoms: _65  and  _67
REMARK   30  A    between atoms: _67  and  _68
REMARK   31  A    between atoms: _67  and  _70
REMARK   32  A    between atoms: _70  and  _71
REMARK   33  A    between atoms: _71  and  _72
REMARK   34  A    between atoms: _75  and  _77
REMARK   35  A    between atoms: _77  and  _78
REMARK   36  A    between atoms: _77  and  _80
REMARK   37  A    between atoms: _80  and  _81
REMARK   38  A    between atoms: _87  and  _89
REMARK   39  A    between atoms: _89  and  _90
REMARK   40  A    between atoms: _89  and  _92
REMARK   41  A    between atoms: _92  and  _93
REMARK   42  A    between atoms: _96  and  _98
REMARK   43  A    between atoms: _98  and  _99
REMARK   44  A    between atoms: _98  and  _101
REMARK   45  A    between atoms: _101  and  _102
REMARK   46  A    between atoms: _107  and  _109
REMARK   47  A    between atoms: _109  and  _110
REMARK   48  A    between atoms: _109  and  _112
REMARK   49  A    between atoms: _112  and  _113
REMARK   50  A    between atoms: _118  and  _120
REMARK   51  A    between atoms: _120  and  _121
REMARK   52  A    between atoms: _124  and  _126
REMARK   53  A    between atoms: _126  and  _127
REMARK   54  A    between atoms: _126  and  _129
REMARK   55  A    between atoms: _129  and  _130
REMARK   56  A    between atoms: _130  and  _131
REMARK   57  A    between atoms: _136  and  _138
REMARK   58  A    between atoms: _138  and  _139
REMARK   59  A    between atoms: _141  and  _143
REMARK   60  A    between atoms: _143  and  _144
REMARK   61  A    between atoms: _143  and  _146
REMARK   62  A    between atoms: _146  and  _147
REMARK   63  A    between atoms: _153  and  _155
REMARK   64  A    between atoms: _155  and  _156
REMARK   65  A    between atoms: _159  and  _161
REMARK   66  A    between atoms: _161  and  _162
REMARK   67  A    between atoms: _161  and  _164
REMARK   68  A    between atoms: _164  and  _165
REMARK   69  A    between atoms: _165  and  _259
REMARK   70  A    between atoms: _166  and  _168
REMARK   71  A    between atoms: _168  and  _169
REMARK   72  A    between atoms: _168  and  _171
REMARK   73  A    between atoms: _171  and  _172
REMARK   74  A    between atoms: _172  and  _173
REMARK   75  A    between atoms: _178  and  _180
REMARK   76  A    between atoms: _180  and  _181
REMARK   77  A    between atoms: _183  and  _185
REMARK   78  A    between atoms: _185  and  _186
REMARK   79  A    between atoms: _185  and  _188
REMARK   80  A    between atoms: _188  and  _189
REMARK   81  A    between atoms: _192  and  _194
REMARK   82  A    between atoms: _194  and  _195
REMARK   83  A    between atoms: _194  and  _197
REMARK   84  A    between atoms: _197  and  _198
REMARK   85  A    between atoms: _203  and  _204
REMARK   86  A    between atoms: _206  and  _208
REMARK   87  A    between atoms: _208  and  _209
REMARK   88  A    between atoms: _208  and  _211
REMARK   89  A    between atoms: _214  and  _216
REMARK   90  A    between atoms: _216  and  _217
REMARK   91  A    between atoms: _216  and  _219
REMARK   92  A    between atoms: _219  and  _220
REMARK   93  A    between atoms: _223  and  _225
REMARK   94  A    between atoms: _225  and  _226
REMARK   95  A    between atoms: _225  and  _228
REMARK   96  A    between atoms: _228  and  _229
REMARK   97  A    between atoms: _235  and  _237
REMARK   98  A    between atoms: _237  and  _238
REMARK   99  A    between atoms: _241  and  _243
REMARK  100  A    between atoms: _243  and  _244
REMARK  101  A    between atoms: _243  and  _246
REMARK  102  A    between atoms: _246  and  _247
REMARK  103  A    between atoms: _247  and  _248
REMARK  104  A    between atoms: _253  and  _255
REMARK  105  A    between atoms: _255  and  _256
REMARK  106  A    between atoms: _255  and  _258
REMARK  107  A    between atoms: _258  and  _259
REMARK  108  A    between atoms: _260  and  _262
REMARK  109  A    between atoms: _262  and  _263
REMARK  110  A    between atoms: _262  and  _265
REMARK  111  A    between atoms: _265  and  _266
REMARK  112  A    between atoms: _271  and  _273
REMARK  113  A    between atoms: _273  and  _274
REMARK  114  A    between atoms: _273  and  _276
REMARK  115  A    between atoms: _276  and  _277
REMARK  116  A    between atoms: _279  and  _281
REMARK  117  A    between atoms: _281  and  _282
REMARK  118  A    between atoms: _281  and  _284
REMARK  119  A    between atoms: _284  and  _285
REMARK  120  A    between atoms: _291  and  _293
REMARK  121  A    between atoms: _293  and  _294
REMARK  122  A    between atoms: _293  and  _296
REMARK  123  A    between atoms: _296  and  _297
REMARK  124  A    between atoms: _300  and  _302
REMARK  125  A    between atoms: _302  and  _303
REMARK  126  A    between atoms: _302  and  _305
REMARK  127  A    between atoms: _305  and  _306
REMARK  128  A    between atoms: _306  and  _307
REMARK  129  A    between atoms: _307  and  _308
REMARK  130  A    between atoms: _317  and  _319
REMARK  131  A    between atoms: _319  and  _320
REMARK  132  A    between atoms: _319  and  _322
REMARK  133  A    between atoms: _322  and  _323
REMARK  134  A    between atoms: _333  and  _335
REMARK  135  A    between atoms: _335  and  _336
REMARK  136  A    between atoms: _335  and  _338
REMARK  137  A    between atoms: _338  and  _339
REMARK  138  A    between atoms: _342  and  _344
REMARK  139  A    between atoms: _344  and  _345
REMARK  140  A    between atoms: _344  and  _347
REMARK  141  A    between atoms: _347  and  _348
REMARK  142  A    between atoms: _350  and  _352
REMARK  143  A    between atoms: _352  and  _353
REMARK  144  A    between atoms: _352  and  _355
REMARK  145  A    between atoms: _355  and  _356
REMARK  146  A    between atoms: _366  and  _368
REMARK  147  A    between atoms: _368  and  _369
REMARK  148  A    between atoms: _368  and  _371
REMARK  149  A    between atoms: _371  and  _372
REMARK  150  A    between atoms: _375  and  _377
REMARK  151  A    between atoms: _377  and  _378
REMARK  152  A    between atoms: _377  and  _380
REMARK  153  A    between atoms: _380  and  _381
REMARK  154  A    between atoms: _384  and  _386
REMARK  155  A    between atoms: _386  and  _387
REMARK  156  A    between atoms: _386  and  _389
REMARK  157  A    between atoms: _389  and  _390
REMARK  158  A    between atoms: _396  and  _398
REMARK  159  A    between atoms: _398  and  _399
REMARK  160  A    between atoms: _398  and  _401
REMARK  161  A    between atoms: _401  and  _402
REMARK  162  A    between atoms: _407  and  _408
REMARK  163  A    between atoms: _410  and  _412
REMARK  164  A    between atoms: _412  and  _413
REMARK  165  A    between atoms: _412  and  _415
REMARK  166  A    between atoms: _418  and  _420
REMARK  167  A    between atoms: _420  and  _421
REMARK  168  A    between atoms: _420  and  _423
REMARK  169  A    between atoms: _423  and  _424
REMARK  170  A    between atoms: _427  and  _429
REMARK  171  A    between atoms: _429  and  _430
REMARK  172  A    between atoms: _429  and  _432
REMARK  173  A    between atoms: _432  and  _433
REMARK  174  A    between atoms: _433  and  _434
REMARK  175  A    between atoms: _434  and  _435
REMARK  176  A    between atoms: _435  and  _436
REMARK  177  A    between atoms: _440  and  _442
REMARK  178  A    between atoms: _442  and  _443
REMARK  179  A    between atoms: _445  and  _447
REMARK  180  A    between atoms: _447  and  _448
REMARK  181  A    between atoms: _450  and  _452
REMARK  182  A    between atoms: _452  and  _453
REMARK  183  A    between atoms: _452  and  _455
REMARK  184  A    between atoms: _455  and  _456
REMARK  185  A    between atoms: _459  and  _461
REMARK  186  A    between atoms: _461  and  _462
REMARK  187  A    between atoms: _461  and  _464
REMARK  188  A    between atoms: _464  and  _465
REMARK  189  A    between atoms: _468  and  _470
REMARK  190  A    between atoms: _470  and  _471
REMARK  191  A    between atoms: _470  and  _473
REMARK  192  A    between atoms: _473  and  _474
REMARK                            x       y       z     vdW  Elec       q    Type
REMARK                         _______ _______ _______ _____ _____    ______ ____
ROOT
ATOM      1  O   HOH     1      31.766 -11.036  -3.946  0.00  0.00    +0.000 OA
ENDROOT
TORSDOF 0
REMARK  Name = ../refined-set-2016/4ggz/4ggz_pocket.pdb
REMARK  192 active torsions:
REMARK  status: ('A' for Active; 'I' for Inactive)
REMARK    1  A    between atoms: _1  and  _3
REMARK    2  A    between atoms: _3  and  _4
REMARK    3  A    between atoms: _3  and  _6
REMARK    4  A    between atoms: _6  and  _7
REMARK    5  A    between atoms: _7  and  _8
REMARK    6  A    between atoms: _8  and  _9
REMARK    7  A    between atoms: _9  and  _10
REMARK    8  A    between atoms: _14  and  _16
REMARK    9  A    between atoms: _16  and  _17
REMARK   10  A    between atoms: _16  and  _19
REMARK   11  A    between atoms: _19  and  _20
REMARK   12  A    between atoms: _25  and  _27
REMARK   13  A    between atoms: _27  and  _28
REMARK   14  A    between atoms: _27  and  _30
REMARK   15  A    between atoms: _30  and  _31
REMARK   16  A    between atoms: _31  and  _32
REMARK   17  A    between atoms: _35  and  _37
REMARK   18  A    between atoms: _37  and  _38
REMARK   19  A    between atoms: _37  and  _40
REMARK   20  A    between atoms: _40  and  _41
REMARK   21  A    between atoms: _41  and  _42
REMARK   22  A    between atoms: _42  and  _43
REMARK   23  A    between atoms: _52  and  _54
REMARK   24  A    between atoms: _54  and  _55
REMARK   25  A    between atoms: _57  and  _59
REMARK   26  A    between atoms: _59  and  _60
REMARK   27  A    between atoms: _59  and  _62
REMARK   28  A    between atoms: _62  and  _63
REMARK   29  A    between atoms: _65  and  _67
REMARK   30  A    between atoms: _67  and  _68
REMARK   31  A    between atoms: _67  and  _70
REMARK   32  A    between atoms: _70  and  _71
REMARK   33  A    between atoms: _71  and  _72
REMARK   34  A    between atoms: _75  and  _77
REMARK   35  A    between atoms: _77  and  _78
REMARK   36  A    between atoms: _77  and  _80
REMARK   37  A    between atoms: _80  and  _81
REMARK   38  A    between atoms: _87  and  _89
REMARK   39  A    between atoms: _89  and  _90
REMARK   40  A    between atoms: _89  and  _92
REMARK   41  A    between atoms: _92  and  _93
REMARK   42  A    between atoms: _96  and  _98
REMARK   43  A    between atoms: _98  and  _99
REMARK   44  A    between atoms: _98  and  _101
REMARK   45  A    between atoms: _101  and  _102
REMARK   46  A    between atoms: _107  and  _109
REMARK   47  A    between atoms: _109  and  _110
REMARK   48  A    between atoms: _109  and  _112
REMARK   49  A    between atoms: _112  and  _113
REMARK   50  A    between atoms: _118  and  _120
REMARK   51  A    between atoms: _120  and  _121
REMARK   52  A    between atoms: _124  and  _126
REMARK   53  A    between atoms: _126  and  _127
REMARK   54  A    between atoms: _126  and  _129
REMARK   55  A    between atoms: _129  and  _130
REMARK   56  A    between atoms: _130  and  _131
REMARK   57  A    between atoms: _136  and  _138
REMARK   58  A    between atoms: _138  and  _139
REMARK   59  A    between atoms: _141  and  _143
REMARK   60  A    between atoms: _143  and  _144
REMARK   61  A    between atoms: _143  and  _146
REMARK   62  A    between atoms: _146  and  _147
REMARK   63  A    between atoms: _153  and  _155
REMARK   64  A    between atoms: _155  and  _156
REMARK   65  A    between atoms: _159  and  _161
REMARK   66  A    between atoms: _161  and  _162
REMARK   67  A    between atoms: _161  and  _164
REMARK   68  A    between atoms: _164  and  _165
REMARK   69  A    between atoms: _165  and  _259
REMARK   70  A    between atoms: _166  and  _168
REMARK   71  A    between atoms: _168  and  _169
REMARK   72  A    between atoms: _168  and  _171
REMARK   73  A    between atoms: _171  and  _172
REMARK   74  A    between atoms: _172  and  _173
REMARK   75  A    between atoms: _178  and  _180
REMARK   76  A    between atoms: _180  and  _181
REMARK   77  A    between atoms: _183  and  _185
REMARK   78  A    between atoms: _185  and  _186
REMARK   79  A    between atoms: _185  and  _188
REMARK   80  A    between atoms: _188  and  _189
REMARK   81  A    between atoms: _192  and  _194
REMARK   82  A    between atoms: _194  and  _195
REMARK   83  A    between atoms: _194  and  _197
REMARK   84  A    between atoms: _197  and  _198
REMARK   85  A    between atoms: _203  and  _204
REMARK   86  A    between atoms: _206  and  _208
REMARK   87  A    between atoms: _208  and  _209
REMARK   88  A    between atoms: _208  and  _211
REMARK   89  A    between atoms: _214  and  _216
REMARK   90  A    between atoms: _216  and  _217
REMARK   91  A    between atoms: _216  and  _219
REMARK   92  A    between atoms: _219  and  _220
REMARK   93  A    between atoms: _223  and  _225
REMARK   94  A    between atoms: _225  and  _226
REMARK   95  A    between atoms: _225  and  _228
REMARK   96  A    between atoms: _228  and  _229
REMARK   97  A    between atoms: _235  and  _237
REMARK   98  A    between atoms: _237  and  _238
REMARK   99  A    between atoms: _241  and  _243
REMARK  100  A    between atoms: _243  and  _244
REMARK  101  A    between atoms: _243  and  _246
REMARK  102  A    between atoms: _246  and  _247
REMARK  103  A    between atoms: _247  and  _248
REMARK  104  A    between atoms: _253  and  _255
REMARK  105  A    between atoms: _255  and  _256
REMARK  106  A    between atoms: _255  and  _258
REMARK  107  A    between atoms: _258  and  _259
REMARK  108  A    between atoms: _260  and  _262
REMARK  109  A    between atoms: _262  and  _263
REMARK  110  A    between atoms: _262  and  _265
REMARK  111  A    between atoms: _265  and  _266
REMARK  112  A    between atoms: _271  and  _273
REMARK  113  A    between atoms: _273  and  _274
REMARK  114  A    between atoms: _273  and  _276
REMARK  115  A    between atoms: _276  and  _277
REMARK  116  A    between atoms: _279  and  _281
REMARK  117  A    between atoms: _281  and  _282
REMARK  118  A    between atoms: _281  and  _284
REMARK  119  A    between atoms: _284  and  _285
REMARK  120  A    between atoms: _291  and  _293
REMARK  121  A    between atoms: _293  and  _294
REMARK  122  A    between atoms: _293  and  _296
REMARK  123  A    between atoms: _296  and  _297
REMARK  124  A    between atoms: _300  and  _302
REMARK  125  A    between atoms: _302  and  _303
REMARK  126  A    between atoms: _302  and  _305
REMARK  127  A    between atoms: _305  and  _306
REMARK  128  A    between atoms: _306  and  _307
REMARK  129  A    between atoms: _307  and  _308
REMARK  130  A    between atoms: _317  and  _319
REMARK  131  A    between atoms: _319  and  _320
REMARK  132  A    between atoms: _319  and  _322
REMARK  133  A    between atoms: _322  and  _323
REMARK  134  A    between atoms: _333  and  _335
REMARK  135  A    between atoms: _335  and  _336
REMARK  136  A    between atoms: _335  and  _338
REMARK  137  A    between atoms: _338  and  _339
REMARK  138  A    between atoms: _342  and  _344
REMARK  139  A    between atoms: _344  and  _345
REMARK  140  A    between atoms: _344  and  _347
REMARK  141  A    between atoms: _347  and  _348
REMARK  142  A    between atoms: _350  and  _352
REMARK  143  A    between atoms: _352  and  _353
REMARK  144  A    between atoms: _352  and  _355
REMARK  145  A    between atoms: _355  and  _356
REMARK  146  A    between atoms: _366  and  _368
REMARK  147  A    between atoms: _368  and  _369
REMARK  148  A    between atoms: _368  and  _371
REMARK  149  A    between atoms: _371  and  _372
REMARK  150  A    between atoms: _375  and  _377
REMARK  151  A    between atoms: _377  and  _378
REMARK  152  A    between atoms: _377  and  _380
REMARK  153  A    between atoms: _380  and  _381
REMARK  154  A    between atoms: _384  and  _386
REMARK  155  A    between atoms: _386  and  _387
REMARK  156  A    between atoms: _386  and  _389
REMARK  157  A    between atoms: _389  and  _390
REMARK  158  A    between atoms: _396  and  _398
REMARK  159  A    between atoms: _398  and  _399
REMARK  160  A    between atoms: _398  and  _401
REMARK  161  A    between atoms: _401  and  _402
REMARK  162  A    between atoms: _407  and  _408
REMARK  163  A    between atoms: _410  and  _412
REMARK  164  A    between atoms: _412  and  _413
REMARK  165  A    between atoms: _412  and  _415
REMARK  166  A    between atoms: _418  and  _420
REMARK  167  A    between atoms: _420  and  _421
REMARK  168  A    between atoms: _420  and  _423
REMARK  169  A    between atoms: _423  and  _424
REMARK  170  A    between atoms: _427  and  _429
REMARK  171  A    between atoms: _429  and  _430
REMARK  172  A    between atoms: _429  and  _432
REMARK  173  A    between atoms: _432  and  _433
REMARK  174  A    between atoms: _433  and  _434
REMARK  175  A    between atoms: _434  and  _435
REMARK  176  A    between atoms: _435  and  _436
REMARK  177  A    between atoms: _440  and  _442
REMARK  178  A    between atoms: _442  and  _443
REMARK  179  A    between atoms: _445  and  _447
REMARK  180  A    between atoms: _447  and  _448
REMARK  181  A    between atoms: _450  and  _452
REMARK  182  A    between atoms: _452  and  _453
REMARK  183  A    between atoms: _452  and  _455
REMARK  184  A    between atoms: _455  and  _456
REMARK  185  A    between atoms: _459  and  _461
REMARK  186  A    between atoms: _461  and  _462
REMARK  187  A    between atoms: _461  and  _464
REMARK  188  A    between atoms: _464  and  _465
REMARK  189  A    between atoms: _468  and  _470
REMARK  190  A    between atoms: _470  and  _471
REMARK  191  A    between atoms: _470  and  _473
REMARK  192  A    between atoms: _473  and  _474
REMARK                            x       y       z     vdW  Elec       q    Type
REMARK                         _______ _______ _______ _____ _____    ______ ____
ROOT
ATOM      1  O   HOH     1      46.543  -9.295  -4.709  0.00  0.00    +0.000 OA
ENDROOT
TORSDOF 0
REMARK  Name = ../refined-set-2016/4ggz/4ggz_pocket.pdb
REMARK  192 active torsions:
REMARK  status: ('A' for Active; 'I' for Inactive)
REMARK    1  A    between atoms: _1  and  _3
REMARK    2  A    between atoms: _3  and  _4
REMARK    3  A    between atoms: _3  and  _6
REMARK    4  A    between atoms: _6  and  _7
REMARK    5  A    between atoms: _7  and  _8
REMARK    6  A    between atoms: _8  and  _9
REMARK    7  A    between atoms: _9  and  _10
REMARK    8  A    between atoms: _14  and  _16
REMARK    9  A    between atoms: _16  and  _17
REMARK   10  A    between atoms: _16  and  _19
REMARK   11  A    between atoms: _19  and  _20
REMARK   12  A    between atoms: _25  and  _27
REMARK   13  A    between atoms: _27  and  _28
REMARK   14  A    between atoms: _27  and  _30
REMARK   15  A    between atoms: _30  and  _31
REMARK   16  A    between atoms: _31  and  _32
REMARK   17  A    between atoms: _35  and  _37
REMARK   18  A    between atoms: _37  and  _38
REMARK   19  A    between atoms: _37  and  _40
REMARK   20  A    between atoms: _40  and  _41
REMARK   21  A    between atoms: _41  and  _42
REMARK   22  A    between atoms: _42  and  _43
REMARK   23  A    between atoms: _52  and  _54
REMARK   24  A    between atoms: _54  and  _55
REMARK   25  A    between atoms: _57  and  _59
REMARK   26  A    between atoms: _59  and  _60
REMARK   27  A    between atoms: _59  and  _62
REMARK   28  A    between atoms: _62  and  _63
REMARK   29  A    between atoms: _65  and  _67
REMARK   30  A    between atoms: _67  and  _68
REMARK   31  A    between atoms: _67  and  _70
REMARK   32  A    between atoms: _70  and  _71
REMARK   33  A    between atoms: _71  and  _72
REMARK   34  A    between atoms: _75  and  _77
REMARK   35  A    between atoms: _77  and  _78
REMARK   36  A    between atoms: _77  and  _80
REMARK   37  A    between atoms: _80  and  _81
REMARK   38  A    between atoms: _87  and  _89
REMARK   39  A    between atoms: _89  and  _90
REMARK   40  A    between atoms: _89  and  _92
REMARK   41  A    between atoms: _92  and  _93
REMARK   42  A    between atoms: _96  and  _98
REMARK   43  A    between atoms: _98  and  _99
REMARK   44  A    between atoms: _98  and  _101
REMARK   45  A    between atoms: _101  and  _102
REMARK   46  A    between atoms: _107  and  _109
REMARK   47  A    between atoms: _109  and  _110
REMARK   48  A    between atoms: _109  and  _112
REMARK   49  A    between atoms: _112  and  _113
REMARK   50  A    between atoms: _118  and  _120
REMARK   51  A    between atoms: _120  and  _121
REMARK   52  A    between atoms: _124  and  _126
REMARK   53  A    between atoms: _126  and  _127
REMARK   54  A    between atoms: _126  and  _129
REMARK   55  A    between atoms: _129  and  _130
REMARK   56  A    between atoms: _130  and  _131
REMARK   57  A    between atoms: _136  and  _138
REMARK   58  A    between atoms: _138  and  _139
REMARK   59  A    between atoms: _141  and  _143
REMARK   60  A    between atoms: _143  and  _144
REMARK   61  A    between atoms: _143  and  _146
REMARK   62  A    between atoms: _146  and  _147
REMARK   63  A    between atoms: _153  and  _155
REMARK   64  A    between atoms: _155  and  _156
REMARK   65  A    between atoms: _159  and  _161
REMARK   66  A    between atoms: _161  and  _162
REMARK   67  A    between atoms: _161  and  _164
REMARK   68  A    between atoms: _164  and  _165
REMARK   69  A    between atoms: _165  and  _259
REMARK   70  A    between atoms: _166  and  _168
REMARK   71  A    between atoms: _168  and  _169
REMARK   72  A    between atoms: _168  and  _171
REMARK   73  A    between atoms: _171  and  _172
REMARK   74  A    between atoms: _172  and  _173
REMARK   75  A    between atoms: _178  and  _180
REMARK   76  A    between atoms: _180  and  _181
REMARK   77  A    between atoms: _183  and  _185
REMARK   78  A    between atoms: _185  and  _186
REMARK   79  A    between atoms: _185  and  _188
REMARK   80  A    between atoms: _188  and  _189
REMARK   81  A    between atoms: _192  and  _194
REMARK   82  A    between atoms: _194  and  _195
REMARK   83  A    between atoms: _194  and  _197
REMARK   84  A    between atoms: _197  and  _198
REMARK   85  A    between atoms: _203  and  _204
REMARK   86  A    between atoms: _206  and  _208
REMARK   87  A    between atoms: _208  and  _209
REMARK   88  A    between atoms: _208  and  _211
REMARK   89  A    between atoms: _214  and  _216
REMARK   90  A    between atoms: _216  and  _217
REMARK   91  A    between atoms: _216  and  _219
REMARK   92  A    between atoms: _219  and  _220
REMARK   93  A    between atoms: _223  and  _225
REMARK   94  A    between atoms: _225  and  _226
REMARK   95  A    between atoms: _225  and  _228
REMARK   96  A    between atoms: _228  and  _229
REMARK   97  A    between atoms: _235  and  _237
REMARK   98  A    between atoms: _237  and  _238
REMARK   99  A    between atoms: _241  and  _243
REMARK  100  A    between atoms: _243  and  _244
REMARK  101  A    between atoms: _243  and  _246
REMARK  102  A    between atoms: _246  and  _247
REMARK  103  A    between atoms: _247  and  _248
REMARK  104  A    between atoms: _253  and  _255
REMARK  105  A    between atoms: _255  and  _256
REMARK  106  A    between atoms: _255  and  _258
REMARK  107  A    between atoms: _258  and  _259
REMARK  108  A    between atoms: _260  and  _262
REMARK  109  A    between atoms: _262  and  _263
REMARK  110  A    between atoms: _262  and  _265
REMARK  111  A    between atoms: _265  and  _266
REMARK  112  A    between atoms: _271  and  _273
REMARK  113  A    between atoms: _273  and  _274
REMARK  114  A    between atoms: _273  and  _276
REMARK  115  A    between atoms: _276  and  _277
REMARK  116  A    between atoms: _279  and  _281
REMARK  117  A    between atoms: _281  and  _282
REMARK  118  A    between atoms: _281  and  _284
REMARK  119  A    between atoms: _284  and  _285
REMARK  120  A    between atoms: _291  and  _293
REMARK  121  A    between atoms: _293  and  _294
REMARK  122  A    between atoms: _293  and  _296
REMARK  123  A    between atoms: _296  and  _297
REMARK  124  A    between atoms: _300  and  _302
REMARK  125  A    between atoms: _302  and  _303
REMARK  126  A    between atoms: _302  and  _305
REMARK  127  A    between atoms: _305  and  _306
REMARK  128  A    between atoms: _306  and  _307
REMARK  129  A    between atoms: _307  and  _308
REMARK  130  A    between atoms: _317  and  _319
REMARK  131  A    between atoms: _319  and  _320
REMARK  132  A    between atoms: _319  and  _322
REMARK  133  A    between atoms: _322  and  _323
REMARK  134  A    between atoms: _333  and  _335
REMARK  135  A    between atoms: _335  and  _336
REMARK  136  A    between atoms: _335  and  _338
REMARK  137  A    between atoms: _338  and  _339
REMARK  138  A    between atoms: _342  and  _344
REMARK  139  A    between atoms: _344  and  _345
REMARK  140  A    between atoms: _344  and  _347
REMARK  141  A    between atoms: _347  and  _348
REMARK  142  A    between atoms: _350  and  _352
REMARK  143  A    between atoms: _352  and  _353
REMARK  144  A    between atoms: _352  and  _355
REMARK  145  A    between atoms: _355  and  _356
REMARK  146  A    between atoms: _366  and  _368
REMARK  147  A    between atoms: _368  and  _369
REMARK  148  A    between atoms: _368  and  _371
REMARK  149  A    between atoms: _371  and  _372
REMARK  150  A    between atoms: _375  and  _377
REMARK  151  A    between atoms: _377  and  _378
REMARK  152  A    between atoms: _377  and  _380
REMARK  153  A    between atoms: _380  and  _381
REMARK  154  A    between atoms: _384  and  _386
REMARK  155  A    between atoms: _386  and  _387
REMARK  156  A    between atoms: _386  and  _389
REMARK  157  A    between atoms: _389  and  _390
REMARK  158  A    between atoms: _396  and  _398
REMARK  159  A    between atoms: _398  and  _399
REMARK  160  A    between atoms: _398  and  _401
REMARK  161  A    between atoms: _401  and  _402
REMARK  162  A    between atoms: _407  and  _408
REMARK  163  A    between atoms: _410  and  _412
REMARK  164  A    between atoms: _412  and  _413
REMARK  165  A    between atoms: _412  and  _415
REMARK  166  A    between atoms: _418  and  _420
REMARK  167  A    between atoms: _420  and  _421
REMARK  168  A    between atoms: _420  and  _423
REMARK  169  A    between atoms: _423  and  _424
REMARK  170  A    between atoms: _427  and  _429
REMARK  171  A    between atoms: _429  and  _430
REMARK  172  A    between atoms: _429  and  _432
REMARK  173  A    between atoms: _432  and  _433
REMARK  174  A    between atoms: _433  and  _434
REMARK  175  A    between atoms: _434  and  _435
REMARK  176  A    between atoms: _435  and  _436
REMARK  177  A    between atoms: _440  and  _442
REMARK  178  A    between atoms: _442  and  _443
REMARK  179  A    between atoms: _445  and  _447
REMARK  180  A    between atoms: _447  and  _448
REMARK  181  A    between atoms: _450  and  _452
REMARK  182  A    between atoms: _452  and  _453
REMARK  183  A    between atoms: _452  and  _455
REMARK  184  A    between atoms: _455  and  _456
REMARK  185  A    between atoms: _459  and  _461
REMARK  186  A    between atoms: _461  and  _462
REMARK  187  A    between atoms: _461  and  _464
REMARK  188  A    between atoms: _464  and  _465
REMARK  189  A    between atoms: _468  and  _470
REMARK  190  A    between atoms: _470  and  _471
REMARK  191  A    between atoms: _470  and  _473
REMARK  192  A    between atoms: _473  and  _474
REMARK                            x       y       z     vdW  Elec       q    Type
REMARK                         _______ _______ _______ _____ _____    ______ ____
ROOT
ATOM      1  O   HOH     1      39.048 -14.554  -1.628  0.00  0.00    +0.000 OA
ENDROOT
TORSDOF 0
REMARK  Name = ../refined-set-2016/4ggz/4ggz_pocket.pdb
REMARK  192 active torsions:
REMARK  status: ('A' for Active; 'I' for Inactive)
REMARK    1  A    between atoms: _1  and  _3
REMARK    2  A    between atoms: _3  and  _4
REMARK    3  A    between atoms: _3  and  _6
REMARK    4  A    between atoms: _6  and  _7
REMARK    5  A    between atoms: _7  and  _8
REMARK    6  A    between atoms: _8  and  _9
REMARK    7  A    between atoms: _9  and  _10
REMARK    8  A    between atoms: _14  and  _16
REMARK    9  A    between atoms: _16  and  _17
REMARK   10  A    between atoms: _16  and  _19
REMARK   11  A    between atoms: _19  and  _20
REMARK   12  A    between atoms: _25  and  _27
REMARK   13  A    between atoms: _27  and  _28
REMARK   14  A    between atoms: _27  and  _30
REMARK   15  A    between atoms: _30  and  _31
REMARK   16  A    between atoms: _31  and  _32
REMARK   17  A    between atoms: _35  and  _37
REMARK   18  A    between atoms: _37  and  _38
REMARK   19  A    between atoms: _37  and  _40
REMARK   20  A    between atoms: _40  and  _41
REMARK   21  A    between atoms: _41  and  _42
REMARK   22  A    between atoms: _42  and  _43
REMARK   23  A    between atoms: _52  and  _54
REMARK   24  A    between atoms: _54  and  _55
REMARK   25  A    between atoms: _57  and  _59
REMARK   26  A    between atoms: _59  and  _60
REMARK   27  A    between atoms: _59  and  _62
REMARK   28  A    between atoms: _62  and  _63
REMARK   29  A    between atoms: _65  and  _67
REMARK   30  A    between atoms: _67  and  _68
REMARK   31  A    between atoms: _67  and  _70
REMARK   32  A    between atoms: _70  and  _71
REMARK   33  A    between atoms: _71  and  _72
REMARK   34  A    between atoms: _75  and  _77
REMARK   35  A    between atoms: _77  and  _78
REMARK   36  A    between atoms: _77  and  _80
REMARK   37  A    between atoms: _80  and  _81
REMARK   38  A    between atoms: _87  and  _89
REMARK   39  A    between atoms: _89  and  _90
REMARK   40  A    between atoms: _89  and  _92
REMARK   41  A    between atoms: _92  and  _93
REMARK   42  A    between atoms: _96  and  _98
REMARK   43  A    between atoms: _98  and  _99
REMARK   44  A    between atoms: _98  and  _101
REMARK   45  A    between atoms: _101  and  _102
REMARK   46  A    between atoms: _107  and  _109
REMARK   47  A    between atoms: _109  and  _110
REMARK   48  A    between atoms: _109  and  _112
REMARK   49  A    between atoms: _112  and  _113
REMARK   50  A    between atoms: _118  and  _120
REMARK   51  A    between atoms: _120  and  _121
REMARK   52  A    between atoms: _124  and  _126
REMARK   53  A    between atoms: _126  and  _127
REMARK   54  A    between atoms: _126  and  _129
REMARK   55  A    between atoms: _129  and  _130
REMARK   56  A    between atoms: _130  and  _131
REMARK   57  A    between atoms: _136  and  _138
REMARK   58  A    between atoms: _138  and  _139
REMARK   59  A    between atoms: _141  and  _143
REMARK   60  A    between atoms: _143  and  _144
REMARK   61  A    between atoms: _143  and  _146
REMARK   62  A    between atoms: _146  and  _147
REMARK   63  A    between atoms: _153  and  _155
REMARK   64  A    between atoms: _155  and  _156
REMARK   65  A    between atoms: _159  and  _161
REMARK   66  A    between atoms: _161  and  _162
REMARK   67  A    between atoms: _161  and  _164
REMARK   68  A    between atoms: _164  and  _165
REMARK   69  A    between atoms: _165  and  _259
REMARK   70  A    between atoms: _166  and  _168
REMARK   71  A    between atoms: _168  and  _169
REMARK   72  A    between atoms: _168  and  _171
REMARK   73  A    between atoms: _171  and  _172
REMARK   74  A    between atoms: _172  and  _173
REMARK   75  A    between atoms: _178  and  _180
REMARK   76  A    between atoms: _180  and  _181
REMARK   77  A    between atoms: _183  and  _185
REMARK   78  A    between atoms: _185  and  _186
REMARK   79  A    between atoms: _185  and  _188
REMARK   80  A    between atoms: _188  and  _189
REMARK   81  A    between atoms: _192  and  _194
REMARK   82  A    between atoms: _194  and  _195
REMARK   83  A    between atoms: _194  and  _197
REMARK   84  A    between atoms: _197  and  _198
REMARK   85  A    between atoms: _203  and  _204
REMARK   86  A    between atoms: _206  and  _208
REMARK   87  A    between atoms: _208  and  _209
REMARK   88  A    between atoms: _208  and  _211
REMARK   89  A    between atoms: _214  and  _216
REMARK   90  A    between atoms: _216  and  _217
REMARK   91  A    between atoms: _216  and  _219
REMARK   92  A    between atoms: _219  and  _220
REMARK   93  A    between atoms: _223  and  _225
REMARK   94  A    between atoms: _225  and  _226
REMARK   95  A    between atoms: _225  and  _228
REMARK   96  A    between atoms: _228  and  _229
REMARK   97  A    between atoms: _235  and  _237
REMARK   98  A    between atoms: _237  and  _238
REMARK   99  A    between atoms: _241  and  _243
REMARK  100  A    between atoms: _243  and  _244
REMARK  101  A    between atoms: _243  and  _246
REMARK  102  A    between atoms: _246  and  _247
REMARK  103  A    between atoms: _247  and  _248
REMARK  104  A    between atoms: _253  and  _255
REMARK  105  A    between atoms: _255  and  _256
REMARK  106  A    between atoms: _255  and  _258
REMARK  107  A    between atoms: _258  and  _259
REMARK  108  A    between atoms: _260  and  _262
REMARK  109  A    between atoms: _262  and  _263
REMARK  110  A    between atoms: _262  and  _265
REMARK  111  A    between atoms: _265  and  _266
REMARK  112  A    between atoms: _271  and  _273
REMARK  113  A    between atoms: _273  and  _274
REMARK  114  A    between atoms: _273  and  _276
REMARK  115  A    between atoms: _276  and  _277
REMARK  116  A    between atoms: _279  and  _281
REMARK  117  A    between atoms: _281  and  _282
REMARK  118  A    between atoms: _281  and  _284
REMARK  119  A    between atoms: _284  and  _285
REMARK  120  A    between atoms: _291  and  _293
REMARK  121  A    between atoms: _293  and  _294
REMARK  122  A    between atoms: _293  and  _296
REMARK  123  A    between atoms: _296  and  _297
REMARK  124  A    between atoms: _300  and  _302
REMARK  125  A    between atoms: _302  and  _303
REMARK  126  A    between atoms: _302  and  _305
REMARK  127  A    between atoms: _305  and  _306
REMARK  128  A    between atoms: _306  and  _307
REMARK  129  A    between atoms: _307  and  _308
REMARK  130  A    between atoms: _317  and  _319
REMARK  131  A    between atoms: _319  and  _320
REMARK  132  A    between atoms: _319  and  _322
REMARK  133  A    between atoms: _322  and  _323
REMARK  134  A    between atoms: _333  and  _335
REMARK  135  A    between atoms: _335  and  _336
REMARK  136  A    between atoms: _335  and  _338
REMARK  137  A    between atoms: _338  and  _339
REMARK  138  A    between atoms: _342  and  _344
REMARK  139  A    between atoms: _344  and  _345
REMARK  140  A    between atoms: _344  and  _347
REMARK  141  A    between atoms: _347  and  _348
REMARK  142  A    between atoms: _350  and  _352
REMARK  143  A    between atoms: _352  and  _353
REMARK  144  A    between atoms: _352  and  _355
REMARK  145  A    between atoms: _355  and  _356
REMARK  146  A    between atoms: _366  and  _368
REMARK  147  A    between atoms: _368  and  _369
REMARK  148  A    between atoms: _368  and  _371
REMARK  149  A    between atoms: _371  and  _372
REMARK  150  A    between atoms: _375  and  _377
REMARK  151  A    between atoms: _377  and  _378
REMARK  152  A    between atoms: _377  and  _380
REMARK  153  A    between atoms: _380  and  _381
REMARK  154  A    between atoms: _384  and  _386
REMARK  155  A    between atoms: _386  and  _387
REMARK  156  A    between atoms: _386  and  _389
REMARK  157  A    between atoms: _389  and  _390
REMARK  158  A    between atoms: _396  and  _398
REMARK  159  A    between atoms: _398  and  _399
REMARK  160  A    between atoms: _398  and  _401
REMARK  161  A    between atoms: _401  and  _402
REMARK  162  A    between atoms: _407  and  _408
REMARK  163  A    between atoms: _410  and  _412
REMARK  164  A    between atoms: _412  and  _413
REMARK  165  A    between atoms: _412  and  _415
REMARK  166  A    between atoms: _418  and  _420
REMARK  167  A    between atoms: _420  and  _421
REMARK  168  A    between atoms: _420  and  _423
REMARK  169  A    between atoms: _423  and  _424
REMARK  170  A    between atoms: _427  and  _429
REMARK  171  A    between atoms: _429  and  _430
REMARK  172  A    between atoms: _429  and  _432
REMARK  173  A    between atoms: _432  and  _433
REMARK  174  A    between atoms: _433  and  _434
REMARK  175  A    between atoms: _434  and  _435
REMARK  176  A    between atoms: _435  and  _436
REMARK  177  A    between atoms: _440  and  _442
REMARK  178  A    between atoms: _442  and  _443
REMARK  179  A    between atoms: _445  and  _447
REMARK  180  A    between atoms: _447  and  _448
REMARK  181  A    between atoms: _450  and  _452
REMARK  182  A    between atoms: _452  and  _453
REMARK  183  A    between atoms: _452  and  _455
REMARK  184  A    between atoms: _455  and  _456
REMARK  185  A    between atoms: _459  and  _461
REMARK  186  A    between atoms: _461  and  _462
REMARK  187  A    between atoms: _461  and  _464
REMARK  188  A    between atoms: _464  and  _465
REMARK  189  A    between atoms: _468  and  _470
REMARK  190  A    between atoms: _470  and  _471
REMARK  191  A    between atoms: _470  and  _473
REMARK  192  A    between atoms: _473  and  _474
REMARK                            x       y       z     vdW  Elec       q    Type
REMARK                         _______ _______ _______ _____ _____    ______ ____
ROOT
ATOM      1  O   HOH     1      37.631 -18.694   3.230  0.00  0.00    +0.000 OA
ENDROOT
TORSDOF 0
REMARK  Name = ../refined-set-2016/4ggz/4ggz_pocket.pdb
REMARK  192 active torsions:
REMARK  status: ('A' for Active; 'I' for Inactive)
REMARK    1  A    between atoms: _1  and  _3
REMARK    2  A    between atoms: _3  and  _4
REMARK    3  A    between atoms: _3  and  _6
REMARK    4  A    between atoms: _6  and  _7
REMARK    5  A    between atoms: _7  and  _8
REMARK    6  A    between atoms: _8  and  _9
REMARK    7  A    between atoms: _9  and  _10
REMARK    8  A    between atoms: _14  and  _16
REMARK    9  A    between atoms: _16  and  _17
REMARK   10  A    between atoms: _16  and  _19
REMARK   11  A    between atoms: _19  and  _20
REMARK   12  A    between atoms: _25  and  _27
REMARK   13  A    between atoms: _27  and  _28
REMARK   14  A    between atoms: _27  and  _30
REMARK   15  A    between atoms: _30  and  _31
REMARK   16  A    between atoms: _31  and  _32
REMARK   17  A    between atoms: _35  and  _37
REMARK   18  A    between atoms: _37  and  _38
REMARK   19  A    between atoms: _37  and  _40
REMARK   20  A    between atoms: _40  and  _41
REMARK   21  A    between atoms: _41  and  _42
REMARK   22  A    between atoms: _42  and  _43
REMARK   23  A    between atoms: _52  and  _54
REMARK   24  A    between atoms: _54  and  _55
REMARK   25  A    between atoms: _57  and  _59
REMARK   26  A    between atoms: _59  and  _60
REMARK   27  A    between atoms: _59  and  _62
REMARK   28  A    between atoms: _62  and  _63
REMARK   29  A    between atoms: _65  and  _67
REMARK   30  A    between atoms: _67  and  _68
REMARK   31  A    between atoms: _67  and  _70
REMARK   32  A    between atoms: _70  and  _71
REMARK   33  A    between atoms: _71  and  _72
REMARK   34  A    between atoms: _75  and  _77
REMARK   35  A    between atoms: _77  and  _78
REMARK   36  A    between atoms: _77  and  _80
REMARK   37  A    between atoms: _80  and  _81
REMARK   38  A    between atoms: _87  and  _89
REMARK   39  A    between atoms: _89  and  _90
REMARK   40  A    between atoms: _89  and  _92
REMARK   41  A    between atoms: _92  and  _93
REMARK   42  A    between atoms: _96  and  _98
REMARK   43  A    between atoms: _98  and  _99
REMARK   44  A    between atoms: _98  and  _101
REMARK   45  A    between atoms: _101  and  _102
REMARK   46  A    between atoms: _107  and  _109
REMARK   47  A    between atoms: _109  and  _110
REMARK   48  A    between atoms: _109  and  _112
REMARK   49  A    between atoms: _112  and  _113
REMARK   50  A    between atoms: _118  and  _120
REMARK   51  A    between atoms: _120  and  _121
REMARK   52  A    between atoms: _124  and  _126
REMARK   53  A    between atoms: _126  and  _127
REMARK   54  A    between atoms: _126  and  _129
REMARK   55  A    between atoms: _129  and  _130
REMARK   56  A    between atoms: _130  and  _131
REMARK   57  A    between atoms: _136  and  _138
REMARK   58  A    between atoms: _138  and  _139
REMARK   59  A    between atoms: _141  and  _143
REMARK   60  A    between atoms: _143  and  _144
REMARK   61  A    between atoms: _143  and  _146
REMARK   62  A    between atoms: _146  and  _147
REMARK   63  A    between atoms: _153  and  _155
REMARK   64  A    between atoms: _155  and  _156
REMARK   65  A    between atoms: _159  and  _161
REMARK   66  A    between atoms: _161  and  _162
REMARK   67  A    between atoms: _161  and  _164
REMARK   68  A    between atoms: _164  and  _165
REMARK   69  A    between atoms: _165  and  _259
REMARK   70  A    between atoms: _166  and  _168
REMARK   71  A    between atoms: _168  and  _169
REMARK   72  A    between atoms: _168  and  _171
REMARK   73  A    between atoms: _171  and  _172
REMARK   74  A    between atoms: _172  and  _173
REMARK   75  A    between atoms: _178  and  _180
REMARK   76  A    between atoms: _180  and  _181
REMARK   77  A    between atoms: _183  and  _185
REMARK   78  A    between atoms: _185  and  _186
REMARK   79  A    between atoms: _185  and  _188
REMARK   80  A    between atoms: _188  and  _189
REMARK   81  A    between atoms: _192  and  _194
REMARK   82  A    between atoms: _194  and  _195
REMARK   83  A    between atoms: _194  and  _197
REMARK   84  A    between atoms: _197  and  _198
REMARK   85  A    between atoms: _203  and  _204
REMARK   86  A    between atoms: _206  and  _208
REMARK   87  A    between atoms: _208  and  _209
REMARK   88  A    between atoms: _208  and  _211
REMARK   89  A    between atoms: _214  and  _216
REMARK   90  A    between atoms: _216  and  _217
REMARK   91  A    between atoms: _216  and  _219
REMARK   92  A    between atoms: _219  and  _220
REMARK   93  A    between atoms: _223  and  _225
REMARK   94  A    between atoms: _225  and  _226
REMARK   95  A    between atoms: _225  and  _228
REMARK   96  A    between atoms: _228  and  _229
REMARK   97  A    between atoms: _235  and  _237
REMARK   98  A    between atoms: _237  and  _238
REMARK   99  A    between atoms: _241  and  _243
REMARK  100  A    between atoms: _243  and  _244
REMARK  101  A    between atoms: _243  and  _246
REMARK  102  A    between atoms: _246  and  _247
REMARK  103  A    between atoms: _247  and  _248
REMARK  104  A    between atoms: _253  and  _255
REMARK  105  A    between atoms: _255  and  _256
REMARK  106  A    between atoms: _255  and  _258
REMARK  107  A    between atoms: _258  and  _259
REMARK  108  A    between atoms: _260  and  _262
REMARK  109  A    between atoms: _262  and  _263
REMARK  110  A    between atoms: _262  and  _265
REMARK  111  A    between atoms: _265  and  _266
REMARK  112  A    between atoms: _271  and  _273
REMARK  113  A    between atoms: _273  and  _274
REMARK  114  A    between atoms: _273  and  _276
REMARK  115  A    between atoms: _276  and  _277
REMARK  116  A    between atoms: _279  and  _281
REMARK  117  A    between atoms: _281  and  _282
REMARK  118  A    between atoms: _281  and  _284
REMARK  119  A    between atoms: _284  and  _285
REMARK  120  A    between atoms: _291  and  _293
REMARK  121  A    between atoms: _293  and  _294
REMARK  122  A    between atoms: _293  and  _296
REMARK  123  A    between atoms: _296  and  _297
REMARK  124  A    between atoms: _300  and  _302
REMARK  125  A    between atoms: _302  and  _303
REMARK  126  A    between atoms: _302  and  _305
REMARK  127  A    between atoms: _305  and  _306
REMARK  128  A    between atoms: _306  and  _307
REMARK  129  A    between atoms: _307  and  _308
REMARK  130  A    between atoms: _317  and  _319
REMARK  131  A    between atoms: _319  and  _320
REMARK  132  A    between atoms: _319  and  _322
REMARK  133  A    between atoms: _322  and  _323
REMARK  134  A    between atoms: _333  and  _335
REMARK  135  A    between atoms: _335  and  _336
REMARK  136  A    between atoms: _335  and  _338
REMARK  137  A    between atoms: _338  and  _339
REMARK  138  A    between atoms: _342  and  _344
REMARK  139  A    between atoms: _344  and  _345
REMARK  140  A    between atoms: _344  and  _347
REMARK  141  A    between atoms: _347  and  _348
REMARK  142  A    between atoms: _350  and  _352
REMARK  143  A    between atoms: _352  and  _353
REMARK  144  A    between atoms: _352  and  _355
REMARK  145  A    between atoms: _355  and  _356
REMARK  146  A    between atoms: _366  and  _368
REMARK  147  A    between atoms: _368  and  _369
REMARK  148  A    between atoms: _368  and  _371
REMARK  149  A    between atoms: _371  and  _372
REMARK  150  A    between atoms: _375  and  _377
REMARK  151  A    between atoms: _377  and  _378
REMARK  152  A    between atoms: _377  and  _380
REMARK  153  A    between atoms: _380  and  _381
REMARK  154  A    between atoms: _384  and  _386
REMARK  155  A    between atoms: _386  and  _387
REMARK  156  A    between atoms: _386  and  _389
REMARK  157  A    between atoms: _389  and  _390
REMARK  158  A    between atoms: _396  and  _398
REMARK  159  A    between atoms: _398  and  _399
REMARK  160  A    between atoms: _398  and  _401
REMARK  161  A    between atoms: _401  and  _402
REMARK  162  A    between atoms: _407  and  _408
REMARK  163  A    between atoms: _410  and  _412
REMARK  164  A    between atoms: _412  and  _413
REMARK  165  A    between atoms: _412  and  _415
REMARK  166  A    between atoms: _418  and  _420
REMARK  167  A    between atoms: _420  and  _421
REMARK  168  A    between atoms: _420  and  _423
REMARK  169  A    between atoms: _423  and  _424
REMARK  170  A    between atoms: _427  and  _429
REMARK  171  A    between atoms: _429  and  _430
REMARK  172  A    between atoms: _429  and  _432
REMARK  173  A    between atoms: _432  and  _433
REMARK  174  A    between atoms: _433  and  _434
REMARK  175  A    between atoms: _434  and  _435
REMARK  176  A    between atoms: _435  and  _436
REMARK  177  A    between atoms: _440  and  _442
REMARK  178  A    between atoms: _442  and  _443
REMARK  179  A    between atoms: _445  and  _447
REMARK  180  A    between atoms: _447  and  _448
REMARK  181  A    between atoms: _450  and  _452
REMARK  182  A    between atoms: _452  and  _453
REMARK  183  A    between atoms: _452  and  _455
REMARK  184  A    between atoms: _455  and  _456
REMARK  185  A    between atoms: _459  and  _461
REMARK  186  A    between atoms: _461  and  _462
REMARK  187  A    between atoms: _461  and  _464
REMARK  188  A    between atoms: _464  and  _465
REMARK  189  A    between atoms: _468  and  _470
REMARK  190  A    between atoms: _470  and  _471
REMARK  191  A    between atoms: _470  and  _473
REMARK  192  A    between atoms: _473  and  _474
REMARK                            x       y       z     vdW  Elec       q    Type
REMARK                         _______ _______ _______ _____ _____    ______ ____
ROOT
ATOM      1  O   HOH     1      48.114  -1.362  -3.513  0.00  0.00    +0.000 OA
ENDROOT
TORSDOF 0
REMARK  Name = ../refined-set-2016/4ggz/4ggz_pocket.pdb
REMARK  192 active torsions:
REMARK  status: ('A' for Active; 'I' for Inactive)
REMARK    1  A    between atoms: _1  and  _3
REMARK    2  A    between atoms: _3  and  _4
REMARK    3  A    between atoms: _3  and  _6
REMARK    4  A    between atoms: _6  and  _7
REMARK    5  A    between atoms: _7  and  _8
REMARK    6  A    between atoms: _8  and  _9
REMARK    7  A    between atoms: _9  and  _10
REMARK    8  A    between atoms: _14  and  _16
REMARK    9  A    between atoms: _16  and  _17
REMARK   10  A    between atoms: _16  and  _19
REMARK   11  A    between atoms: _19  and  _20
REMARK   12  A    between atoms: _25  and  _27
REMARK   13  A    between atoms: _27  and  _28
REMARK   14  A    between atoms: _27  and  _30
REMARK   15  A    between atoms: _30  and  _31
REMARK   16  A    between atoms: _31  and  _32
REMARK   17  A    between atoms: _35  and  _37
REMARK   18  A    between atoms: _37  and  _38
REMARK   19  A    between atoms: _37  and  _40
REMARK   20  A    between atoms: _40  and  _41
REMARK   21  A    between atoms: _41  and  _42
REMARK   22  A    between atoms: _42  and  _43
REMARK   23  A    between atoms: _52  and  _54
REMARK   24  A    between atoms: _54  and  _55
REMARK   25  A    between atoms: _57  and  _59
REMARK   26  A    between atoms: _59  and  _60
REMARK   27  A    between atoms: _59  and  _62
REMARK   28  A    between atoms: _62  and  _63
REMARK   29  A    between atoms: _65  and  _67
REMARK   30  A    between atoms: _67  and  _68
REMARK   31  A    between atoms: _67  and  _70
REMARK   32  A    between atoms: _70  and  _71
REMARK   33  A    between atoms: _71  and  _72
REMARK   34  A    between atoms: _75  and  _77
REMARK   35  A    between atoms: _77  and  _78
REMARK   36  A    between atoms: _77  and  _80
REMARK   37  A    between atoms: _80  and  _81
REMARK   38  A    between atoms: _87  and  _89
REMARK   39  A    between atoms: _89  and  _90
REMARK   40  A    between atoms: _89  and  _92
REMARK   41  A    between atoms: _92  and  _93
REMARK   42  A    between atoms: _96  and  _98
REMARK   43  A    between atoms: _98  and  _99
REMARK   44  A    between atoms: _98  and  _101
REMARK   45  A    between atoms: _101  and  _102
REMARK   46  A    between atoms: _107  and  _109
REMARK   47  A    between atoms: _109  and  _110
REMARK   48  A    between atoms: _109  and  _112
REMARK   49  A    between atoms: _112  and  _113
REMARK   50  A    between atoms: _118  and  _120
REMARK   51  A    between atoms: _120  and  _121
REMARK   52  A    between atoms: _124  and  _126
REMARK   53  A    between atoms: _126  and  _127
REMARK   54  A    between atoms: _126  and  _129
REMARK   55  A    between atoms: _129  and  _130
REMARK   56  A    between atoms: _130  and  _131
REMARK   57  A    between atoms: _136  and  _138
REMARK   58  A    between atoms: _138  and  _139
REMARK   59  A    between atoms: _141  and  _143
REMARK   60  A    between atoms: _143  and  _144
REMARK   61  A    between atoms: _143  and  _146
REMARK   62  A    between atoms: _146  and  _147
REMARK   63  A    between atoms: _153  and  _155
REMARK   64  A    between atoms: _155  and  _156
REMARK   65  A    between atoms: _159  and  _161
REMARK   66  A    between atoms: _161  and  _162
REMARK   67  A    between atoms: _161  and  _164
REMARK   68  A    between atoms: _164  and  _165
REMARK   69  A    between atoms: _165  and  _259
REMARK   70  A    between atoms: _166  and  _168
REMARK   71  A    between atoms: _168  and  _169
REMARK   72  A    between atoms: _168  and  _171
REMARK   73  A    between atoms: _171  and  _172
REMARK   74  A    between atoms: _172  and  _173
REMARK   75  A    between atoms: _178  and  _180
REMARK   76  A    between atoms: _180  and  _181
REMARK   77  A    between atoms: _183  and  _185
REMARK   78  A    between atoms: _185  and  _186
REMARK   79  A    between atoms: _185  and  _188
REMARK   80  A    between atoms: _188  and  _189
REMARK   81  A    between atoms: _192  and  _194
REMARK   82  A    between atoms: _194  and  _195
REMARK   83  A    between atoms: _194  and  _197
REMARK   84  A    between atoms: _197  and  _198
REMARK   85  A    between atoms: _203  and  _204
REMARK   86  A    between atoms: _206  and  _208
REMARK   87  A    between atoms: _208  and  _209
REMARK   88  A    between atoms: _208  and  _211
REMARK   89  A    between atoms: _214  and  _216
REMARK   90  A    between atoms: _216  and  _217
REMARK   91  A    between atoms: _216  and  _219
REMARK   92  A    between atoms: _219  and  _220
REMARK   93  A    between atoms: _223  and  _225
REMARK   94  A    between atoms: _225  and  _226
REMARK   95  A    between atoms: _225  and  _228
REMARK   96  A    between atoms: _228  and  _229
REMARK   97  A    between atoms: _235  and  _237
REMARK   98  A    between atoms: _237  and  _238
REMARK   99  A    between atoms: _241  and  _243
REMARK  100  A    between atoms: _243  and  _244
REMARK  101  A    between atoms: _243  and  _246
REMARK  102  A    between atoms: _246  and  _247
REMARK  103  A    between atoms: _247  and  _248
REMARK  104  A    between atoms: _253  and  _255
REMARK  105  A    between atoms: _255  and  _256
REMARK  106  A    between atoms: _255  and  _258
REMARK  107  A    between atoms: _258  and  _259
REMARK  108  A    between atoms: _260  and  _262
REMARK  109  A    between atoms: _262  and  _263
REMARK  110  A    between atoms: _262  and  _265
REMARK  111  A    between atoms: _265  and  _266
REMARK  112  A    between atoms: _271  and  _273
REMARK  113  A    between atoms: _273  and  _274
REMARK  114  A    between atoms: _273  and  _276
REMARK  115  A    between atoms: _276  and  _277
REMARK  116  A    between atoms: _279  and  _281
REMARK  117  A    between atoms: _281  and  _282
REMARK  118  A    between atoms: _281  and  _284
REMARK  119  A    between atoms: _284  and  _285
REMARK  120  A    between atoms: _291  and  _293
REMARK  121  A    between atoms: _293  and  _294
REMARK  122  A    between atoms: _293  and  _296
REMARK  123  A    between atoms: _296  and  _297
REMARK  124  A    between atoms: _300  and  _302
REMARK  125  A    between atoms: _302  and  _303
REMARK  126  A    between atoms: _302  and  _305
REMARK  127  A    between atoms: _305  and  _306
REMARK  128  A    between atoms: _306  and  _307
REMARK  129  A    between atoms: _307  and  _308
REMARK  130  A    between atoms: _317  and  _319
REMARK  131  A    between atoms: _319  and  _320
REMARK  132  A    between atoms: _319  and  _322
REMARK  133  A    between atoms: _322  and  _323
REMARK  134  A    between atoms: _333  and  _335
REMARK  135  A    between atoms: _335  and  _336
REMARK  136  A    between atoms: _335  and  _338
REMARK  137  A    between atoms: _338  and  _339
REMARK  138  A    between atoms: _342  and  _344
REMARK  139  A    between atoms: _344  and  _345
REMARK  140  A    between atoms: _344  and  _347
REMARK  141  A    between atoms: _347  and  _348
REMARK  142  A    between atoms: _350  and  _352
REMARK  143  A    between atoms: _352  and  _353
REMARK  144  A    between atoms: _352  and  _355
REMARK  145  A    between atoms: _355  and  _356
REMARK  146  A    between atoms: _366  and  _368
REMARK  147  A    between atoms: _368  and  _369
REMARK  148  A    between atoms: _368  and  _371
REMARK  149  A    between atoms: _371  and  _372
REMARK  150  A    between atoms: _375  and  _377
REMARK  151  A    between atoms: _377  and  _378
REMARK  152  A    between atoms: _377  and  _380
REMARK  153  A    between atoms: _380  and  _381
REMARK  154  A    between atoms: _384  and  _386
REMARK  155  A    between atoms: _386  and  _387
REMARK  156  A    between atoms: _386  and  _389
REMARK  157  A    between atoms: _389  and  _390
REMARK  158  A    between atoms: _396  and  _398
REMARK  159  A    between atoms: _398  and  _399
REMARK  160  A    between atoms: _398  and  _401
REMARK  161  A    between atoms: _401  and  _402
REMARK  162  A    between atoms: _407  and  _408
REMARK  163  A    between atoms: _410  and  _412
REMARK  164  A    between atoms: _412  and  _413
REMARK  165  A    between atoms: _412  and  _415
REMARK  166  A    between atoms: _418  and  _420
REMARK  167  A    between atoms: _420  and  _421
REMARK  168  A    between atoms: _420  and  _423
REMARK  169  A    between atoms: _423  and  _424
REMARK  170  A    between atoms: _427  and  _429
REMARK  171  A    between atoms: _429  and  _430
REMARK  172  A    between atoms: _429  and  _432
REMARK  173  A    between atoms: _432  and  _433
REMARK  174  A    between atoms: _433  and  _434
REMARK  175  A    between atoms: _434  and  _435
REMARK  176  A    between atoms: _435  and  _436
REMARK  177  A    between atoms: _440  and  _442
REMARK  178  A    between atoms: _442  and  _443
REMARK  179  A    between atoms: _445  and  _447
REMARK  180  A    between atoms: _447  and  _448
REMARK  181  A    between atoms: _450  and  _452
REMARK  182  A    between atoms: _452  and  _453
REMARK  183  A    between atoms: _452  and  _455
REMARK  184  A    between atoms: _455  and  _456
REMARK  185  A    between atoms: _459  and  _461
REMARK  186  A    between atoms: _461  and  _462
REMARK  187  A    between atoms: _461  and  _464
REMARK  188  A    between atoms: _464  and  _465
REMARK  189  A    between atoms: _468  and  _470
REMARK  190  A    between atoms: _470  and  _471
REMARK  191  A    between atoms: _470  and  _473
REMARK  192  A    between atoms: _473  and  _474
REMARK                            x       y       z     vdW  Elec       q    Type
REMARK                         _______ _______ _______ _____ _____    ______ ____
ROOT
ATOM      1  O   HOH     1      41.445 -14.402  -2.830  0.00  0.00    +0.000 OA
ENDROOT
TORSDOF 0
REMARK  Name = ../refined-set-2016/4ggz/4ggz_pocket.pdb
REMARK  192 active torsions:
REMARK  status: ('A' for Active; 'I' for Inactive)
REMARK    1  A    between atoms: _1  and  _3
REMARK    2  A    between atoms: _3  and  _4
REMARK    3  A    between atoms: _3  and  _6
REMARK    4  A    between atoms: _6  and  _7
REMARK    5  A    between atoms: _7  and  _8
REMARK    6  A    between atoms: _8  and  _9
REMARK    7  A    between atoms: _9  and  _10
REMARK    8  A    between atoms: _14  and  _16
REMARK    9  A    between atoms: _16  and  _17
REMARK   10  A    between atoms: _16  and  _19
REMARK   11  A    between atoms: _19  and  _20
REMARK   12  A    between atoms: _25  and  _27
REMARK   13  A    between atoms: _27  and  _28
REMARK   14  A    between atoms: _27  and  _30
REMARK   15  A    between atoms: _30  and  _31
REMARK   16  A    between atoms: _31  and  _32
REMARK   17  A    between atoms: _35  and  _37
REMARK   18  A    between atoms: _37  and  _38
REMARK   19  A    between atoms: _37  and  _40
REMARK   20  A    between atoms: _40  and  _41
REMARK   21  A    between atoms: _41  and  _42
REMARK   22  A    between atoms: _42  and  _43
REMARK   23  A    between atoms: _52  and  _54
REMARK   24  A    between atoms: _54  and  _55
REMARK   25  A    between atoms: _57  and  _59
REMARK   26  A    between atoms: _59  and  _60
REMARK   27  A    between atoms: _59  and  _62
REMARK   28  A    between atoms: _62  and  _63
REMARK   29  A    between atoms: _65  and  _67
REMARK   30  A    between atoms: _67  and  _68
REMARK   31  A    between atoms: _67  and  _70
REMARK   32  A    between atoms: _70  and  _71
REMARK   33  A    between atoms: _71  and  _72
REMARK   34  A    between atoms: _75  and  _77
REMARK   35  A    between atoms: _77  and  _78
REMARK   36  A    between atoms: _77  and  _80
REMARK   37  A    between atoms: _80  and  _81
REMARK   38  A    between atoms: _87  and  _89
REMARK   39  A    between atoms: _89  and  _90
REMARK   40  A    between atoms: _89  and  _92
REMARK   41  A    between atoms: _92  and  _93
REMARK   42  A    between atoms: _96  and  _98
REMARK   43  A    between atoms: _98  and  _99
REMARK   44  A    between atoms: _98  and  _101
REMARK   45  A    between atoms: _101  and  _102
REMARK   46  A    between atoms: _107  and  _109
REMARK   47  A    between atoms: _109  and  _110
REMARK   48  A    between atoms: _109  and  _112
REMARK   49  A    between atoms: _112  and  _113
REMARK   50  A    between atoms: _118  and  _120
REMARK   51  A    between atoms: _120  and  _121
REMARK   52  A    between atoms: _124  and  _126
REMARK   53  A    between atoms: _126  and  _127
REMARK   54  A    between atoms: _126  and  _129
REMARK   55  A    between atoms: _129  and  _130
REMARK   56  A    between atoms: _130  and  _131
REMARK   57  A    between atoms: _136  and  _138
REMARK   58  A    between atoms: _138  and  _139
REMARK   59  A    between atoms: _141  and  _143
REMARK   60  A    between atoms: _143  and  _144
REMARK   61  A    between atoms: _143  and  _146
REMARK   62  A    between atoms: _146  and  _147
REMARK   63  A    between atoms: _153  and  _155
REMARK   64  A    between atoms: _155  and  _156
REMARK   65  A    between atoms: _159  and  _161
REMARK   66  A    between atoms: _161  and  _162
REMARK   67  A    between atoms: _161  and  _164
REMARK   68  A    between atoms: _164  and  _165
REMARK   69  A    between atoms: _165  and  _259
REMARK   70  A    between atoms: _166  and  _168
REMARK   71  A    between atoms: _168  and  _169
REMARK   72  A    between atoms: _168  and  _171
REMARK   73  A    between atoms: _171  and  _172
REMARK   74  A    between atoms: _172  and  _173
REMARK   75  A    between atoms: _178  and  _180
REMARK   76  A    between atoms: _180  and  _181
REMARK   77  A    between atoms: _183  and  _185
REMARK   78  A    between atoms: _185  and  _186
REMARK   79  A    between atoms: _185  and  _188
REMARK   80  A    between atoms: _188  and  _189
REMARK   81  A    between atoms: _192  and  _194
REMARK   82  A    between atoms: _194  and  _195
REMARK   83  A    between atoms: _194  and  _197
REMARK   84  A    between atoms: _197  and  _198
REMARK   85  A    between atoms: _203  and  _204
REMARK   86  A    between atoms: _206  and  _208
REMARK   87  A    between atoms: _208  and  _209
REMARK   88  A    between atoms: _208  and  _211
REMARK   89  A    between atoms: _214  and  _216
REMARK   90  A    between atoms: _216  and  _217
REMARK   91  A    between atoms: _216  and  _219
REMARK   92  A    between atoms: _219  and  _220
REMARK   93  A    between atoms: _223  and  _225
REMARK   94  A    between atoms: _225  and  _226
REMARK   95  A    between atoms: _225  and  _228
REMARK   96  A    between atoms: _228  and  _229
REMARK   97  A    between atoms: _235  and  _237
REMARK   98  A    between atoms: _237  and  _238
REMARK   99  A    between atoms: _241  and  _243
REMARK  100  A    between atoms: _243  and  _244
REMARK  101  A    between atoms: _243  and  _246
REMARK  102  A    between atoms: _246  and  _247
REMARK  103  A    between atoms: _247  and  _248
REMARK  104  A    between atoms: _253  and  _255
REMARK  105  A    between atoms: _255  and  _256
REMARK  106  A    between atoms: _255  and  _258
REMARK  107  A    between atoms: _258  and  _259
REMARK  108  A    between atoms: _260  and  _262
REMARK  109  A    between atoms: _262  and  _263
REMARK  110  A    between atoms: _262  and  _265
REMARK  111  A    between atoms: _265  and  _266
REMARK  112  A    between atoms: _271  and  _273
REMARK  113  A    between atoms: _273  and  _274
REMARK  114  A    between atoms: _273  and  _276
REMARK  115  A    between atoms: _276  and  _277
REMARK  116  A    between atoms: _279  and  _281
REMARK  117  A    between atoms: _281  and  _282
REMARK  118  A    between atoms: _281  and  _284
REMARK  119  A    between atoms: _284  and  _285
REMARK  120  A    between atoms: _291  and  _293
REMARK  121  A    between atoms: _293  and  _294
REMARK  122  A    between atoms: _293  and  _296
REMARK  123  A    between atoms: _296  and  _297
REMARK  124  A    between atoms: _300  and  _302
REMARK  125  A    between atoms: _302  and  _303
REMARK  126  A    between atoms: _302  and  _305
REMARK  127  A    between atoms: _305  and  _306
REMARK  128  A    between atoms: _306  and  _307
REMARK  129  A    between atoms: _307  and  _308
REMARK  130  A    between atoms: _317  and  _319
REMARK  131  A    between atoms: _319  and  _320
REMARK  132  A    between atoms: _319  and  _322
REMARK  133  A    between atoms: _322  and  _323
REMARK  134  A    between atoms: _333  and  _335
REMARK  135  A    between atoms: _335  and  _336
REMARK  136  A    between atoms: _335  and  _338
REMARK  137  A    between atoms: _338  and  _339
REMARK  138  A    between atoms: _342  and  _344
REMARK  139  A    between atoms: _344  and  _345
REMARK  140  A    between atoms: _344  and  _347
REMARK  141  A    between atoms: _347  and  _348
REMARK  142  A    between atoms: _350  and  _352
REMARK  143  A    between atoms: _352  and  _353
REMARK  144  A    between atoms: _352  and  _355
REMARK  145  A    between atoms: _355  and  _356
REMARK  146  A    between atoms: _366  and  _368
REMARK  147  A    between atoms: _368  and  _369
REMARK  148  A    between atoms: _368  and  _371
REMARK  149  A    between atoms: _371  and  _372
REMARK  150  A    between atoms: _375  and  _377
REMARK  151  A    between atoms: _377  and  _378
REMARK  152  A    between atoms: _377  and  _380
REMARK  153  A    between atoms: _380  and  _381
REMARK  154  A    between atoms: _384  and  _386
REMARK  155  A    between atoms: _386  and  _387
REMARK  156  A    between atoms: _386  and  _389
REMARK  157  A    between atoms: _389  and  _390
REMARK  158  A    between atoms: _396  and  _398
REMARK  159  A    between atoms: _398  and  _399
REMARK  160  A    between atoms: _398  and  _401
REMARK  161  A    between atoms: _401  and  _402
REMARK  162  A    between atoms: _407  and  _408
REMARK  163  A    between atoms: _410  and  _412
REMARK  164  A    between atoms: _412  and  _413
REMARK  165  A    between atoms: _412  and  _415
REMARK  166  A    between atoms: _418  and  _420
REMARK  167  A    between atoms: _420  and  _421
REMARK  168  A    between atoms: _420  and  _423
REMARK  169  A    between atoms: _423  and  _424
REMARK  170  A    between atoms: _427  and  _429
REMARK  171  A    between atoms: _429  and  _430
REMARK  172  A    between atoms: _429  and  _432
REMARK  173  A    between atoms: _432  and  _433
REMARK  174  A    between atoms: _433  and  _434
REMARK  175  A    between atoms: _434  and  _435
REMARK  176  A    between atoms: _435  and  _436
REMARK  177  A    between atoms: _440  and  _442
REMARK  178  A    between atoms: _442  and  _443
REMARK  179  A    between atoms: _445  and  _447
REMARK  180  A    between atoms: _447  and  _448
REMARK  181  A    between atoms: _450  and  _452
REMARK  182  A    between atoms: _452  and  _453
REMARK  183  A    between atoms: _452  and  _455
REMARK  184  A    between atoms: _455  and  _456
REMARK  185  A    between atoms: _459  and  _461
REMARK  186  A    between atoms: _461  and  _462
REMARK  187  A    between atoms: _461  and  _464
REMARK  188  A    between atoms: _464  and  _465
REMARK  189  A    between atoms: _468  and  _470
REMARK  190  A    between atoms: _470  and  _471
REMARK  191  A    between atoms: _470  and  _473
REMARK  192  A    between atoms: _473  and  _474
REMARK                            x       y       z     vdW  Elec       q    Type
REMARK                         _______ _______ _______ _____ _____    ______ ____
ROOT
ATOM      1  O   HOH     1      44.569  -9.871  -6.830  0.00  0.00    +0.000 OA
ENDROOT
TORSDOF 0
REMARK  Name = ../refined-set-2016/4ggz/4ggz_pocket.pdb
REMARK  192 active torsions:
REMARK  status: ('A' for Active; 'I' for Inactive)
REMARK    1  A    between atoms: _1  and  _3
REMARK    2  A    between atoms: _3  and  _4
REMARK    3  A    between atoms: _3  and  _6
REMARK    4  A    between atoms: _6  and  _7
REMARK    5  A    between atoms: _7  and  _8
REMARK    6  A    between atoms: _8  and  _9
REMARK    7  A    between atoms: _9  and  _10
REMARK    8  A    between atoms: _14  and  _16
REMARK    9  A    between atoms: _16  and  _17
REMARK   10  A    between atoms: _16  and  _19
REMARK   11  A    between atoms: _19  and  _20
REMARK   12  A    between atoms: _25  and  _27
REMARK   13  A    between atoms: _27  and  _28
REMARK   14  A    between atoms: _27  and  _30
REMARK   15  A    between atoms: _30  and  _31
REMARK   16  A    between atoms: _31  and  _32
REMARK   17  A    between atoms: _35  and  _37
REMARK   18  A    between atoms: _37  and  _38
REMARK   19  A    between atoms: _37  and  _40
REMARK   20  A    between atoms: _40  and  _41
REMARK   21  A    between atoms: _41  and  _42
REMARK   22  A    between atoms: _42  and  _43
REMARK   23  A    between atoms: _52  and  _54
REMARK   24  A    between atoms: _54  and  _55
REMARK   25  A    between atoms: _57  and  _59
REMARK   26  A    between atoms: _59  and  _60
REMARK   27  A    between atoms: _59  and  _62
REMARK   28  A    between atoms: _62  and  _63
REMARK   29  A    between atoms: _65  and  _67
REMARK   30  A    between atoms: _67  and  _68
REMARK   31  A    between atoms: _67  and  _70
REMARK   32  A    between atoms: _70  and  _71
REMARK   33  A    between atoms: _71  and  _72
REMARK   34  A    between atoms: _75  and  _77
REMARK   35  A    between atoms: _77  and  _78
REMARK   36  A    between atoms: _77  and  _80
REMARK   37  A    between atoms: _80  and  _81
REMARK   38  A    between atoms: _87  and  _89
REMARK   39  A    between atoms: _89  and  _90
REMARK   40  A    between atoms: _89  and  _92
REMARK   41  A    between atoms: _92  and  _93
REMARK   42  A    between atoms: _96  and  _98
REMARK   43  A    between atoms: _98  and  _99
REMARK   44  A    between atoms: _98  and  _101
REMARK   45  A    between atoms: _101  and  _102
REMARK   46  A    between atoms: _107  and  _109
REMARK   47  A    between atoms: _109  and  _110
REMARK   48  A    between atoms: _109  and  _112
REMARK   49  A    between atoms: _112  and  _113
REMARK   50  A    between atoms: _118  and  _120
REMARK   51  A    between atoms: _120  and  _121
REMARK   52  A    between atoms: _124  and  _126
REMARK   53  A    between atoms: _126  and  _127
REMARK   54  A    between atoms: _126  and  _129
REMARK   55  A    between atoms: _129  and  _130
REMARK   56  A    between atoms: _130  and  _131
REMARK   57  A    between atoms: _136  and  _138
REMARK   58  A    between atoms: _138  and  _139
REMARK   59  A    between atoms: _141  and  _143
REMARK   60  A    between atoms: _143  and  _144
REMARK   61  A    between atoms: _143  and  _146
REMARK   62  A    between atoms: _146  and  _147
REMARK   63  A    between atoms: _153  and  _155
REMARK   64  A    between atoms: _155  and  _156
REMARK   65  A    between atoms: _159  and  _161
REMARK   66  A    between atoms: _161  and  _162
REMARK   67  A    between atoms: _161  and  _164
REMARK   68  A    between atoms: _164  and  _165
REMARK   69  A    between atoms: _165  and  _259
REMARK   70  A    between atoms: _166  and  _168
REMARK   71  A    between atoms: _168  and  _169
REMARK   72  A    between atoms: _168  and  _171
REMARK   73  A    between atoms: _171  and  _172
REMARK   74  A    between atoms: _172  and  _173
REMARK   75  A    between atoms: _178  and  _180
REMARK   76  A    between atoms: _180  and  _181
REMARK   77  A    between atoms: _183  and  _185
REMARK   78  A    between atoms: _185  and  _186
REMARK   79  A    between atoms: _185  and  _188
REMARK   80  A    between atoms: _188  and  _189
REMARK   81  A    between atoms: _192  and  _194
REMARK   82  A    between atoms: _194  and  _195
REMARK   83  A    between atoms: _194  and  _197
REMARK   84  A    between atoms: _197  and  _198
REMARK   85  A    between atoms: _203  and  _204
REMARK   86  A    between atoms: _206  and  _208
REMARK   87  A    between atoms: _208  and  _209
REMARK   88  A    between atoms: _208  and  _211
REMARK   89  A    between atoms: _214  and  _216
REMARK   90  A    between atoms: _216  and  _217
REMARK   91  A    between atoms: _216  and  _219
REMARK   92  A    between atoms: _219  and  _220
REMARK   93  A    between atoms: _223  and  _225
REMARK   94  A    between atoms: _225  and  _226
REMARK   95  A    between atoms: _225  and  _228
REMARK   96  A    between atoms: _228  and  _229
REMARK   97  A    between atoms: _235  and  _237
REMARK   98  A    between atoms: _237  and  _238
REMARK   99  A    between atoms: _241  and  _243
REMARK  100  A    between atoms: _243  and  _244
REMARK  101  A    between atoms: _243  and  _246
REMARK  102  A    between atoms: _246  and  _247
REMARK  103  A    between atoms: _247  and  _248
REMARK  104  A    between atoms: _253  and  _255
REMARK  105  A    between atoms: _255  and  _256
REMARK  106  A    between atoms: _255  and  _258
REMARK  107  A    between atoms: _258  and  _259
REMARK  108  A    between atoms: _260  and  _262
REMARK  109  A    between atoms: _262  and  _263
REMARK  110  A    between atoms: _262  and  _265
REMARK  111  A    between atoms: _265  and  _266
REMARK  112  A    between atoms: _271  and  _273
REMARK  113  A    between atoms: _273  and  _274
REMARK  114  A    between atoms: _273  and  _276
REMARK  115  A    between atoms: _276  and  _277
REMARK  116  A    between atoms: _279  and  _281
REMARK  117  A    between atoms: _281  and  _282
REMARK  118  A    between atoms: _281  and  _284
REMARK  119  A    between atoms: _284  and  _285
REMARK  120  A    between atoms: _291  and  _293
REMARK  121  A    between atoms: _293  and  _294
REMARK  122  A    between atoms: _293  and  _296
REMARK  123  A    between atoms: _296  and  _297
REMARK  124  A    between atoms: _300  and  _302
REMARK  125  A    between atoms: _302  and  _303
REMARK  126  A    between atoms: _302  and  _305
REMARK  127  A    between atoms: _305  and  _306
REMARK  128  A    between atoms: _306  and  _307
REMARK  129  A    between atoms: _307  and  _308
REMARK  130  A    between atoms: _317  and  _319
REMARK  131  A    between atoms: _319  and  _320
REMARK  132  A    between atoms: _319  and  _322
REMARK  133  A    between atoms: _322  and  _323
REMARK  134  A    between atoms: _333  and  _335
REMARK  135  A    between atoms: _335  and  _336
REMARK  136  A    between atoms: _335  and  _338
REMARK  137  A    between atoms: _338  and  _339
REMARK  138  A    between atoms: _342  and  _344
REMARK  139  A    between atoms: _344  and  _345
REMARK  140  A    between atoms: _344  and  _347
REMARK  141  A    between atoms: _347  and  _348
REMARK  142  A    between atoms: _350  and  _352
REMARK  143  A    between atoms: _352  and  _353
REMARK  144  A    between atoms: _352  and  _355
REMARK  145  A    between atoms: _355  and  _356
REMARK  146  A    between atoms: _366  and  _368
REMARK  147  A    between atoms: _368  and  _369
REMARK  148  A    between atoms: _368  and  _371
REMARK  149  A    between atoms: _371  and  _372
REMARK  150  A    between atoms: _375  and  _377
REMARK  151  A    between atoms: _377  and  _378
REMARK  152  A    between atoms: _377  and  _380
REMARK  153  A    between atoms: _380  and  _381
REMARK  154  A    between atoms: _384  and  _386
REMARK  155  A    between atoms: _386  and  _387
REMARK  156  A    between atoms: _386  and  _389
REMARK  157  A    between atoms: _389  and  _390
REMARK  158  A    between atoms: _396  and  _398
REMARK  159  A    between atoms: _398  and  _399
REMARK  160  A    between atoms: _398  and  _401
REMARK  161  A    between atoms: _401  and  _402
REMARK  162  A    between atoms: _407  and  _408
REMARK  163  A    between atoms: _410  and  _412
REMARK  164  A    between atoms: _412  and  _413
REMARK  165  A    between atoms: _412  and  _415
REMARK  166  A    between atoms: _418  and  _420
REMARK  167  A    between atoms: _420  and  _421
REMARK  168  A    between atoms: _420  and  _423
REMARK  169  A    between atoms: _423  and  _424
REMARK  170  A    between atoms: _427  and  _429
REMARK  171  A    between atoms: _429  and  _430
REMARK  172  A    between atoms: _429  and  _432
REMARK  173  A    between atoms: _432  and  _433
REMARK  174  A    between atoms: _433  and  _434
REMARK  175  A    between atoms: _434  and  _435
REMARK  176  A    between atoms: _435  and  _436
REMARK  177  A    between atoms: _440  and  _442
REMARK  178  A    between atoms: _442  and  _443
REMARK  179  A    between atoms: _445  and  _447
REMARK  180  A    between atoms: _447  and  _448
REMARK  181  A    between atoms: _450  and  _452
REMARK  182  A    between atoms: _452  and  _453
REMARK  183  A    between atoms: _452  and  _455
REMARK  184  A    between atoms: _455  and  _456
REMARK  185  A    between atoms: _459  and  _461
REMARK  186  A    between atoms: _461  and  _462
REMARK  187  A    between atoms: _461  and  _464
REMARK  188  A    between atoms: _464  and  _465
REMARK  189  A    between atoms: _468  and  _470
REMARK  190  A    between atoms: _470  and  _471
REMARK  191  A    between atoms: _470  and  _473
REMARK  192  A    between atoms: _473  and  _474
REMARK                            x       y       z     vdW  Elec       q    Type
REMARK                         _______ _______ _______ _____ _____    ______ ____
ROOT
ATOM      1  O   HOH     1      49.270 -10.369  -2.481  0.00  0.00    +0.000 OA
ENDROOT
TORSDOF 0
REMARK  Name = ../refined-set-2016/4ggz/4ggz_pocket.pdb
REMARK  192 active torsions:
REMARK  status: ('A' for Active; 'I' for Inactive)
REMARK    1  A    between atoms: _1  and  _3
REMARK    2  A    between atoms: _3  and  _4
REMARK    3  A    between atoms: _3  and  _6
REMARK    4  A    between atoms: _6  and  _7
REMARK    5  A    between atoms: _7  and  _8
REMARK    6  A    between atoms: _8  and  _9
REMARK    7  A    between atoms: _9  and  _10
REMARK    8  A    between atoms: _14  and  _16
REMARK    9  A    between atoms: _16  and  _17
REMARK   10  A    between atoms: _16  and  _19
REMARK   11  A    between atoms: _19  and  _20
REMARK   12  A    between atoms: _25  and  _27
REMARK   13  A    between atoms: _27  and  _28
REMARK   14  A    between atoms: _27  and  _30
REMARK   15  A    between atoms: _30  and  _31
REMARK   16  A    between atoms: _31  and  _32
REMARK   17  A    between atoms: _35  and  _37
REMARK   18  A    between atoms: _37  and  _38
REMARK   19  A    between atoms: _37  and  _40
REMARK   20  A    between atoms: _40  and  _41
REMARK   21  A    between atoms: _41  and  _42
REMARK   22  A    between atoms: _42  and  _43
REMARK   23  A    between atoms: _52  and  _54
REMARK   24  A    between atoms: _54  and  _55
REMARK   25  A    between atoms: _57  and  _59
REMARK   26  A    between atoms: _59  and  _60
REMARK   27  A    between atoms: _59  and  _62
REMARK   28  A    between atoms: _62  and  _63
REMARK   29  A    between atoms: _65  and  _67
REMARK   30  A    between atoms: _67  and  _68
REMARK   31  A    between atoms: _67  and  _70
REMARK   32  A    between atoms: _70  and  _71
REMARK   33  A    between atoms: _71  and  _72
REMARK   34  A    between atoms: _75  and  _77
REMARK   35  A    between atoms: _77  and  _78
REMARK   36  A    between atoms: _77  and  _80
REMARK   37  A    between atoms: _80  and  _81
REMARK   38  A    between atoms: _87  and  _89
REMARK   39  A    between atoms: _89  and  _90
REMARK   40  A    between atoms: _89  and  _92
REMARK   41  A    between atoms: _92  and  _93
REMARK   42  A    between atoms: _96  and  _98
REMARK   43  A    between atoms: _98  and  _99
REMARK   44  A    between atoms: _98  and  _101
REMARK   45  A    between atoms: _101  and  _102
REMARK   46  A    between atoms: _107  and  _109
REMARK   47  A    between atoms: _109  and  _110
REMARK   48  A    between atoms: _109  and  _112
REMARK   49  A    between atoms: _112  and  _113
REMARK   50  A    between atoms: _118  and  _120
REMARK   51  A    between atoms: _120  and  _121
REMARK   52  A    between atoms: _124  and  _126
REMARK   53  A    between atoms: _126  and  _127
REMARK   54  A    between atoms: _126  and  _129
REMARK   55  A    between atoms: _129  and  _130
REMARK   56  A    between atoms: _130  and  _131
REMARK   57  A    between atoms: _136  and  _138
REMARK   58  A    between atoms: _138  and  _139
REMARK   59  A    between atoms: _141  and  _143
REMARK   60  A    between atoms: _143  and  _144
REMARK   61  A    between atoms: _143  and  _146
REMARK   62  A    between atoms: _146  and  _147
REMARK   63  A    between atoms: _153  and  _155
REMARK   64  A    between atoms: _155  and  _156
REMARK   65  A    between atoms: _159  and  _161
REMARK   66  A    between atoms: _161  and  _162
REMARK   67  A    between atoms: _161  and  _164
REMARK   68  A    between atoms: _164  and  _165
REMARK   69  A    between atoms: _165  and  _259
REMARK   70  A    between atoms: _166  and  _168
REMARK   71  A    between atoms: _168  and  _169
REMARK   72  A    between atoms: _168  and  _171
REMARK   73  A    between atoms: _171  and  _172
REMARK   74  A    between atoms: _172  and  _173
REMARK   75  A    between atoms: _178  and  _180
REMARK   76  A    between atoms: _180  and  _181
REMARK   77  A    between atoms: _183  and  _185
REMARK   78  A    between atoms: _185  and  _186
REMARK   79  A    between atoms: _185  and  _188
REMARK   80  A    between atoms: _188  and  _189
REMARK   81  A    between atoms: _192  and  _194
REMARK   82  A    between atoms: _194  and  _195
REMARK   83  A    between atoms: _194  and  _197
REMARK   84  A    between atoms: _197  and  _198
REMARK   85  A    between atoms: _203  and  _204
REMARK   86  A    between atoms: _206  and  _208
REMARK   87  A    between atoms: _208  and  _209
REMARK   88  A    between atoms: _208  and  _211
REMARK   89  A    between atoms: _214  and  _216
REMARK   90  A    between atoms: _216  and  _217
REMARK   91  A    between atoms: _216  and  _219
REMARK   92  A    between atoms: _219  and  _220
REMARK   93  A    between atoms: _223  and  _225
REMARK   94  A    between atoms: _225  and  _226
REMARK   95  A    between atoms: _225  and  _228
REMARK   96  A    between atoms: _228  and  _229
REMARK   97  A    between atoms: _235  and  _237
REMARK   98  A    between atoms: _237  and  _238
REMARK   99  A    between atoms: _241  and  _243
REMARK  100  A    between atoms: _243  and  _244
REMARK  101  A    between atoms: _243  and  _246
REMARK  102  A    between atoms: _246  and  _247
REMARK  103  A    between atoms: _247  and  _248
REMARK  104  A    between atoms: _253  and  _255
REMARK  105  A    between atoms: _255  and  _256
REMARK  106  A    between atoms: _255  and  _258
REMARK  107  A    between atoms: _258  and  _259
REMARK  108  A    between atoms: _260  and  _262
REMARK  109  A    between atoms: _262  and  _263
REMARK  110  A    between atoms: _262  and  _265
REMARK  111  A    between atoms: _265  and  _266
REMARK  112  A    between atoms: _271  and  _273
REMARK  113  A    between atoms: _273  and  _274
REMARK  114  A    between atoms: _273  and  _276
REMARK  115  A    between atoms: _276  and  _277
REMARK  116  A    between atoms: _279  and  _281
REMARK  117  A    between atoms: _281  and  _282
REMARK  118  A    between atoms: _281  and  _284
REMARK  119  A    between atoms: _284  and  _285
REMARK  120  A    between atoms: _291  and  _293
REMARK  121  A    between atoms: _293  and  _294
REMARK  122  A    between atoms: _293  and  _296
REMARK  123  A    between atoms: _296  and  _297
REMARK  124  A    between atoms: _300  and  _302
REMARK  125  A    between atoms: _302  and  _303
REMARK  126  A    between atoms: _302  and  _305
REMARK  127  A    between atoms: _305  and  _306
REMARK  128  A    between atoms: _306  and  _307
REMARK  129  A    between atoms: _307  and  _308
REMARK  130  A    between atoms: _317  and  _319
REMARK  131  A    between atoms: _319  and  _320
REMARK  132  A    between atoms: _319  and  _322
REMARK  133  A    between atoms: _322  and  _323
REMARK  134  A    between atoms: _333  and  _335
REMARK  135  A    between atoms: _335  and  _336
REMARK  136  A    between atoms: _335  and  _338
REMARK  137  A    between atoms: _338  and  _339
REMARK  138  A    between atoms: _342  and  _344
REMARK  139  A    between atoms: _344  and  _345
REMARK  140  A    between atoms: _344  and  _347
REMARK  141  A    between atoms: _347  and  _348
REMARK  142  A    between atoms: _350  and  _352
REMARK  143  A    between atoms: _352  and  _353
REMARK  144  A    between atoms: _352  and  _355
REMARK  145  A    between atoms: _355  and  _356
REMARK  146  A    between atoms: _366  and  _368
REMARK  147  A    between atoms: _368  and  _369
REMARK  148  A    between atoms: _368  and  _371
REMARK  149  A    between atoms: _371  and  _372
REMARK  150  A    between atoms: _375  and  _377
REMARK  151  A    between atoms: _377  and  _378
REMARK  152  A    between atoms: _377  and  _380
REMARK  153  A    between atoms: _380  and  _381
REMARK  154  A    between atoms: _384  and  _386
REMARK  155  A    between atoms: _386  and  _387
REMARK  156  A    between atoms: _386  and  _389
REMARK  157  A    between atoms: _389  and  _390
REMARK  158  A    between atoms: _396  and  _398
REMARK  159  A    between atoms: _398  and  _399
REMARK  160  A    between atoms: _398  and  _401
REMARK  161  A    between atoms: _401  and  _402
REMARK  162  A    between atoms: _407  and  _408
REMARK  163  A    between atoms: _410  and  _412
REMARK  164  A    between atoms: _412  and  _413
REMARK  165  A    between atoms: _412  and  _415
REMARK  166  A    between atoms: _418  and  _420
REMARK  167  A    between atoms: _420  and  _421
REMARK  168  A    between atoms: _420  and  _423
REMARK  169  A    between atoms: _423  and  _424
REMARK  170  A    between atoms: _427  and  _429
REMARK  171  A    between atoms: _429  and  _430
REMARK  172  A    between atoms: _429  and  _432
REMARK  173  A    between atoms: _432  and  _433
REMARK  174  A    between atoms: _433  and  _434
REMARK  175  A    between atoms: _434  and  _435
REMARK  176  A    between atoms: _435  and  _436
REMARK  177  A    between atoms: _440  and  _442
REMARK  178  A    between atoms: _442  and  _443
REMARK  179  A    between atoms: _445  and  _447
REMARK  180  A    between atoms: _447  and  _448
REMARK  181  A    between atoms: _450  and  _452
REMARK  182  A    between atoms: _452  and  _453
REMARK  183  A    between atoms: _452  and  _455
REMARK  184  A    between atoms: _455  and  _456
REMARK  185  A    between atoms: _459  and  _461
REMARK  186  A    between atoms: _461  and  _462
REMARK  187  A    between atoms: _461  and  _464
REMARK  188  A    between atoms: _464  and  _465
REMARK  189  A    between atoms: _468  and  _470
REMARK  190  A    between atoms: _470  and  _471
REMARK  191  A    between atoms: _470  and  _473
REMARK  192  A    between atoms: _473  and  _474
REMARK                            x       y       z     vdW  Elec       q    Type
REMARK                         _______ _______ _______ _____ _____    ______ ____
ROOT
ATOM      1  O   HOH     1      46.849 -11.298  -3.083  0.00  0.00    +0.000 OA
ENDROOT
TORSDOF 0
REMARK  Name = ../refined-set-2016/4ggz/4ggz_pocket.pdb
REMARK  192 active torsions:
REMARK  status: ('A' for Active; 'I' for Inactive)
REMARK    1  A    between atoms: _1  and  _3
REMARK    2  A    between atoms: _3  and  _4
REMARK    3  A    between atoms: _3  and  _6
REMARK    4  A    between atoms: _6  and  _7
REMARK    5  A    between atoms: _7  and  _8
REMARK    6  A    between atoms: _8  and  _9
REMARK    7  A    between atoms: _9  and  _10
REMARK    8  A    between atoms: _14  and  _16
REMARK    9  A    between atoms: _16  and  _17
REMARK   10  A    between atoms: _16  and  _19
REMARK   11  A    between atoms: _19  and  _20
REMARK   12  A    between atoms: _25  and  _27
REMARK   13  A    between atoms: _27  and  _28
REMARK   14  A    between atoms: _27  and  _30
REMARK   15  A    between atoms: _30  and  _31
REMARK   16  A    between atoms: _31  and  _32
REMARK   17  A    between atoms: _35  and  _37
REMARK   18  A    between atoms: _37  and  _38
REMARK   19  A    between atoms: _37  and  _40
REMARK   20  A    between atoms: _40  and  _41
REMARK   21  A    between atoms: _41  and  _42
REMARK   22  A    between atoms: _42  and  _43
REMARK   23  A    between atoms: _52  and  _54
REMARK   24  A    between atoms: _54  and  _55
REMARK   25  A    between atoms: _57  and  _59
REMARK   26  A    between atoms: _59  and  _60
REMARK   27  A    between atoms: _59  and  _62
REMARK   28  A    between atoms: _62  and  _63
REMARK   29  A    between atoms: _65  and  _67
REMARK   30  A    between atoms: _67  and  _68
REMARK   31  A    between atoms: _67  and  _70
REMARK   32  A    between atoms: _70  and  _71
REMARK   33  A    between atoms: _71  and  _72
REMARK   34  A    between atoms: _75  and  _77
REMARK   35  A    between atoms: _77  and  _78
REMARK   36  A    between atoms: _77  and  _80
REMARK   37  A    between atoms: _80  and  _81
REMARK   38  A    between atoms: _87  and  _89
REMARK   39  A    between atoms: _89  and  _90
REMARK   40  A    between atoms: _89  and  _92
REMARK   41  A    between atoms: _92  and  _93
REMARK   42  A    between atoms: _96  and  _98
REMARK   43  A    between atoms: _98  and  _99
REMARK   44  A    between atoms: _98  and  _101
REMARK   45  A    between atoms: _101  and  _102
REMARK   46  A    between atoms: _107  and  _109
REMARK   47  A    between atoms: _109  and  _110
REMARK   48  A    between atoms: _109  and  _112
REMARK   49  A    between atoms: _112  and  _113
REMARK   50  A    between atoms: _118  and  _120
REMARK   51  A    between atoms: _120  and  _121
REMARK   52  A    between atoms: _124  and  _126
REMARK   53  A    between atoms: _126  and  _127
REMARK   54  A    between atoms: _126  and  _129
REMARK   55  A    between atoms: _129  and  _130
REMARK   56  A    between atoms: _130  and  _131
REMARK   57  A    between atoms: _136  and  _138
REMARK   58  A    between atoms: _138  and  _139
REMARK   59  A    between atoms: _141  and  _143
REMARK   60  A    between atoms: _143  and  _144
REMARK   61  A    between atoms: _143  and  _146
REMARK   62  A    between atoms: _146  and  _147
REMARK   63  A    between atoms: _153  and  _155
REMARK   64  A    between atoms: _155  and  _156
REMARK   65  A    between atoms: _159  and  _161
REMARK   66  A    between atoms: _161  and  _162
REMARK   67  A    between atoms: _161  and  _164
REMARK   68  A    between atoms: _164  and  _165
REMARK   69  A    between atoms: _165  and  _259
REMARK   70  A    between atoms: _166  and  _168
REMARK   71  A    between atoms: _168  and  _169
REMARK   72  A    between atoms: _168  and  _171
REMARK   73  A    between atoms: _171  and  _172
REMARK   74  A    between atoms: _172  and  _173
REMARK   75  A    between atoms: _178  and  _180
REMARK   76  A    between atoms: _180  and  _181
REMARK   77  A    between atoms: _183  and  _185
REMARK   78  A    between atoms: _185  and  _186
REMARK   79  A    between atoms: _185  and  _188
REMARK   80  A    between atoms: _188  and  _189
REMARK   81  A    between atoms: _192  and  _194
REMARK   82  A    between atoms: _194  and  _195
REMARK   83  A    between atoms: _194  and  _197
REMARK   84  A    between atoms: _197  and  _198
REMARK   85  A    between atoms: _203  and  _204
REMARK   86  A    between atoms: _206  and  _208
REMARK   87  A    between atoms: _208  and  _209
REMARK   88  A    between atoms: _208  and  _211
REMARK   89  A    between atoms: _214  and  _216
REMARK   90  A    between atoms: _216  and  _217
REMARK   91  A    between atoms: _216  and  _219
REMARK   92  A    between atoms: _219  and  _220
REMARK   93  A    between atoms: _223  and  _225
REMARK   94  A    between atoms: _225  and  _226
REMARK   95  A    between atoms: _225  and  _228
REMARK   96  A    between atoms: _228  and  _229
REMARK   97  A    between atoms: _235  and  _237
REMARK   98  A    between atoms: _237  and  _238
REMARK   99  A    between atoms: _241  and  _243
REMARK  100  A    between atoms: _243  and  _244
REMARK  101  A    between atoms: _243  and  _246
REMARK  102  A    between atoms: _246  and  _247
REMARK  103  A    between atoms: _247  and  _248
REMARK  104  A    between atoms: _253  and  _255
REMARK  105  A    between atoms: _255  and  _256
REMARK  106  A    between atoms: _255  and  _258
REMARK  107  A    between atoms: _258  and  _259
REMARK  108  A    between atoms: _260  and  _262
REMARK  109  A    between atoms: _262  and  _263
REMARK  110  A    between atoms: _262  and  _265
REMARK  111  A    between atoms: _265  and  _266
REMARK  112  A    between atoms: _271  and  _273
REMARK  113  A    between atoms: _273  and  _274
REMARK  114  A    between atoms: _273  and  _276
REMARK  115  A    between atoms: _276  and  _277
REMARK  116  A    between atoms: _279  and  _281
REMARK  117  A    between atoms: _281  and  _282
REMARK  118  A    between atoms: _281  and  _284
REMARK  119  A    between atoms: _284  and  _285
REMARK  120  A    between atoms: _291  and  _293
REMARK  121  A    between atoms: _293  and  _294
REMARK  122  A    between atoms: _293  and  _296
REMARK  123  A    between atoms: _296  and  _297
REMARK  124  A    between atoms: _300  and  _302
REMARK  125  A    between atoms: _302  and  _303
REMARK  126  A    between atoms: _302  and  _305
REMARK  127  A    between atoms: _305  and  _306
REMARK  128  A    between atoms: _306  and  _307
REMARK  129  A    between atoms: _307  and  _308
REMARK  130  A    between atoms: _317  and  _319
REMARK  131  A    between atoms: _319  and  _320
REMARK  132  A    between atoms: _319  and  _322
REMARK  133  A    between atoms: _322  and  _323
REMARK  134  A    between atoms: _333  and  _335
REMARK  135  A    between atoms: _335  and  _336
REMARK  136  A    between atoms: _335  and  _338
REMARK  137  A    between atoms: _338  and  _339
REMARK  138  A    between atoms: _342  and  _344
REMARK  139  A    between atoms: _344  and  _345
REMARK  140  A    between atoms: _344  and  _347
REMARK  141  A    between atoms: _347  and  _348
REMARK  142  A    between atoms: _350  and  _352
REMARK  143  A    between atoms: _352  and  _353
REMARK  144  A    between atoms: _352  and  _355
REMARK  145  A    between atoms: _355  and  _356
REMARK  146  A    between atoms: _366  and  _368
REMARK  147  A    between atoms: _368  and  _369
REMARK  148  A    between atoms: _368  and  _371
REMARK  149  A    between atoms: _371  and  _372
REMARK  150  A    between atoms: _375  and  _377
REMARK  151  A    between atoms: _377  and  _378
REMARK  152  A    between atoms: _377  and  _380
REMARK  153  A    between atoms: _380  and  _381
REMARK  154  A    between atoms: _384  and  _386
REMARK  155  A    between atoms: _386  and  _387
REMARK  156  A    between atoms: _386  and  _389
REMARK  157  A    between atoms: _389  and  _390
REMARK  158  A    between atoms: _396  and  _398
REMARK  159  A    between atoms: _398  and  _399
REMARK  160  A    between atoms: _398  and  _401
REMARK  161  A    between atoms: _401  and  _402
REMARK  162  A    between atoms: _407  and  _408
REMARK  163  A    between atoms: _410  and  _412
REMARK  164  A    between atoms: _412  and  _413
REMARK  165  A    between atoms: _412  and  _415
REMARK  166  A    between atoms: _418  and  _420
REMARK  167  A    between atoms: _420  and  _421
REMARK  168  A    between atoms: _420  and  _423
REMARK  169  A    between atoms: _423  and  _424
REMARK  170  A    between atoms: _427  and  _429
REMARK  171  A    between atoms: _429  and  _430
REMARK  172  A    between atoms: _429  and  _432
REMARK  173  A    between atoms: _432  and  _433
REMARK  174  A    between atoms: _433  and  _434
REMARK  175  A    between atoms: _434  and  _435
REMARK  176  A    between atoms: _435  and  _436
REMARK  177  A    between atoms: _440  and  _442
REMARK  178  A    between atoms: _442  and  _443
REMARK  179  A    between atoms: _445  and  _447
REMARK  180  A    between atoms: _447  and  _448
REMARK  181  A    between atoms: _450  and  _452
REMARK  182  A    between atoms: _452  and  _453
REMARK  183  A    between atoms: _452  and  _455
REMARK  184  A    between atoms: _455  and  _456
REMARK  185  A    between atoms: _459  and  _461
REMARK  186  A    between atoms: _461  and  _462
REMARK  187  A    between atoms: _461  and  _464
REMARK  188  A    between atoms: _464  and  _465
REMARK  189  A    between atoms: _468  and  _470
REMARK  190  A    between atoms: _470  and  _471
REMARK  191  A    between atoms: _470  and  _473
REMARK  192  A    between atoms: _473  and  _474
REMARK                            x       y       z     vdW  Elec       q    Type
REMARK                         _______ _______ _______ _____ _____    ______ ____
ROOT
ATOM      1  O   HOH     1      31.563 -14.020  -1.051  0.00  0.00    +0.000 OA
ENDROOT
TORSDOF 0
