REMARK  Name = ../refined-set-2016/1usn/1usn_pocket.pdb
REMARK  134 active torsions:
REMARK  status: ('A' for Active; 'I' for Inactive)
REMARK    1  A    between atoms: _1  and  _3
REMARK    2  A    between atoms: _3  and  _4
REMARK    3  A    between atoms: _3  and  _6
REMARK    4  A    between atoms: _6  and  _7
REMARK    5  A    between atoms: _14  and  _15
REMARK    6  A    between atoms: _21  and  _22
REMARK    7  A    between atoms: _27  and  _29
REMARK    8  A    between atoms: _29  and  _30
REMARK    9  A    between atoms: _29  and  _32
REMARK   10  A    between atoms: _32  and  _33
REMARK   11  A    between atoms: _37  and  ZN_355
REMARK   12  A    between atoms: _38  and  _40
REMARK   13  A    between atoms: _40  and  _41
REMARK   14  A    between atoms: _40  and  _43
REMARK   15  A    between atoms: _43  and  _44
REMARK   16  A    between atoms: _44  and  _46
REMARK   17  A    between atoms: _46  and  ZN_355
REMARK   18  A    between atoms: _47  and  _49
REMARK   19  A    between atoms: _49  and  _50
REMARK   20  A    between atoms: _49  and  _52
REMARK   21  A    between atoms: _52  and  _53
REMARK   22  A    between atoms: _59  and  _61
REMARK   23  A    between atoms: _61  and  _62
REMARK   24  A    between atoms: _61  and  _64
REMARK   25  A    between atoms: _64  and  _65
REMARK   26  A    between atoms: _70  and  _71
REMARK   27  A    between atoms: _74  and  _75
REMARK   28  A    between atoms: _80  and  _82
REMARK   29  A    between atoms: _82  and  _83
REMARK   30  A    between atoms: _82  and  _85
REMARK   31  A    between atoms: _85  and  _86
REMARK   32  A    between atoms: _92  and  _94
REMARK   33  A    between atoms: _94  and  _95
REMARK   34  A    between atoms: _94  and  _97
REMARK   35  A    between atoms: _100  and  _102
REMARK   36  A    between atoms: _102  and  _103
REMARK   37  A    between atoms: _102  and  _105
REMARK   38  A    between atoms: _105  and  _106
REMARK   39  A    between atoms: _109  and  _111
REMARK   40  A    between atoms: _111  and  _112
REMARK   41  A    between atoms: _117  and  _118
REMARK   42  A    between atoms: _117  and  _120
REMARK   43  A    between atoms: _120  and  _121
REMARK   44  A    between atoms: _125  and  ZN_355
REMARK   45  A    between atoms: _126  and  _128
REMARK   46  A    between atoms: _128  and  _129
REMARK   47  A    between atoms: _132  and  _134
REMARK   48  A    between atoms: _134  and  _135
REMARK   49  A    between atoms: _134  and  _137
REMARK   50  A    between atoms: _137  and  _138
REMARK   51  A    between atoms: _143  and  _144
REMARK   52  A    between atoms: _146  and  _148
REMARK   53  A    between atoms: _148  and  _149
REMARK   54  A    between atoms: _153  and  _154
REMARK   55  A    between atoms: _159  and  _161
REMARK   56  A    between atoms: _161  and  _162
REMARK   57  A    between atoms: _161  and  _164
REMARK   58  A    between atoms: _164  and  _165
REMARK   59  A    between atoms: _168  and  _170
REMARK   60  A    between atoms: _170  and  _171
REMARK   61  A    between atoms: _170  and  _173
REMARK   62  A    between atoms: _173  and  _174
REMARK   63  A    between atoms: _179  and  _181
REMARK   64  A    between atoms: _181  and  _182
REMARK   65  A    between atoms: _184  and  _186
REMARK   66  A    between atoms: _186  and  _187
REMARK   67  A    between atoms: _186  and  _189
REMARK   68  A    between atoms: _189  and  _190
REMARK   69  A    between atoms: _193  and  _195
REMARK   70  A    between atoms: _195  and  _196
REMARK   71  A    between atoms: _199  and  _201
REMARK   72  A    between atoms: _201  and  _202
REMARK   73  A    between atoms: _201  and  _204
REMARK   74  A    between atoms: _204  and  _205
REMARK   75  A    between atoms: _206  and  ZN_355
REMARK   76  A    between atoms: _210  and  _212
REMARK   77  A    between atoms: _212  and  _213
REMARK   78  A    between atoms: _212  and  _215
REMARK   79  A    between atoms: _218  and  _220
REMARK   80  A    between atoms: _220  and  _221
REMARK   81  A    between atoms: _220  and  _223
REMARK   82  A    between atoms: _223  and  _224
REMARK   83  A    between atoms: _228  and  ZN_354
REMARK   84  A    between atoms: _229  and  _231
REMARK   85  A    between atoms: _231  and  _232
REMARK   86  A    between atoms: _231  and  _234
REMARK   87  A    between atoms: _234  and  _235
REMARK   88  A    between atoms: _235  and  _236
REMARK   89  A    between atoms: _239  and  _241
REMARK   90  A    between atoms: _241  and  _242
REMARK   91  A    between atoms: _241  and  _244
REMARK   92  A    between atoms: _244  and  _245
REMARK   93  A    between atoms: _248  and  _250
REMARK   94  A    between atoms: _250  and  _251
REMARK   95  A    between atoms: _250  and  _253
REMARK   96  A    between atoms: _253  and  _254
REMARK   97  A    between atoms: _258  and  ZN_354
REMARK   98  A    between atoms: _259  and  _261
REMARK   99  A    between atoms: _261  and  _262
REMARK  100  A    between atoms: _261  and  _264
REMARK  101  A    between atoms: _264  and  _265
REMARK  102  A    between atoms: _267  and  _269
REMARK  103  A    between atoms: _269  and  _270
REMARK  104  A    between atoms: _269  and  _272
REMARK  105  A    between atoms: _272  and  _273
REMARK  106  A    between atoms: _276  and  _278
REMARK  107  A    between atoms: _278  and  _279
REMARK  108  A    between atoms: _278  and  _281
REMARK  109  A    between atoms: _281  and  _282
REMARK  110  A    between atoms: _288  and  _290
REMARK  111  A    between atoms: _290  and  _291
REMARK  112  A    between atoms: _290  and  _293
REMARK  113  A    between atoms: _293  and  _294
REMARK  114  A    between atoms: _298  and  ZN_354
REMARK  115  A    between atoms: _299  and  _301
REMARK  116  A    between atoms: _301  and  _302
REMARK  117  A    between atoms: _301  and  _304
REMARK  118  A    between atoms: _304  and  _305
REMARK  119  A    between atoms: _305  and  _306
REMARK  120  A    between atoms: _308  and  _310
REMARK  121  A    between atoms: _310  and  _311
REMARK  122  A    between atoms: _310  and  _313
REMARK  123  A    between atoms: _313  and  _314
REMARK  124  A    between atoms: _319  and  _320
REMARK  125  A    between atoms: _323  and  _324
REMARK  126  A    between atoms: _329  and  _331
REMARK  127  A    between atoms: _331  and  _332
REMARK  128  A    between atoms: _331  and  _334
REMARK  129  A    between atoms: _334  and  _335
REMARK  130  A    between atoms: _340  and  _341
REMARK  131  A    between atoms: _343  and  _345
REMARK  132  A    between atoms: _345  and  _346
REMARK  133  A    between atoms: _345  and  _348
REMARK  134  A    between atoms: _348  and  _349
REMARK                            x       y       z     vdW  Elec       q    Type
REMARK                         _______ _______ _______ _____ _____    ______ ____
ROOT
ATOM      1  CA  PHE A   1      25.341  42.494  56.539  0.00  0.00    +0.149 C 
ENDROOT
BRANCH   1   2
ATOM      2  C   PHE A   1      24.085  41.911  57.216  0.00  0.00    +0.242 C 
ATOM      3  O   PHE A   1      24.175  41.001  58.058  0.00  0.00    -0.273 OA
ATOM      4  N   PRO A   2      22.880  42.371  56.864  0.00  0.00    -0.273 N 
ATOM      5  CA  PRO A   2      21.643  41.820  57.384  0.00  0.00    +0.140 C 
ATOM      6  CB  PRO A   2      20.549  42.575  56.640  0.00  0.00    +0.030 C 
ATOM      7  CG  PRO A   2      21.173  43.857  56.195  0.00  0.00    +0.024 C 
ATOM      8  CD  PRO A   2      22.636  43.470  55.902  0.00  0.00    +0.094 C 
BRANCH   5   9
ATOM      9  C   PRO A   2      21.503  40.307  57.243  0.00  0.00    +0.227 C 
ATOM     10  O   PRO A   2      21.646  39.715  56.172  0.00  0.00    -0.286 OA
ENDBRANCH   5   9
ENDBRANCH   1   2
BRANCH   1  11
ATOM     11  N   PHE A   1      26.491  42.344  57.472  0.00  0.00    -0.238 NA
ATOM     12  H   PHE A   1      27.166  41.565  57.337  0.00  0.00    +0.142 HD
ENDBRANCH   1  11
BRANCH   1  13
ATOM     13  CB  PHE A   1      25.628  41.808  55.220  0.00  0.00    +0.053 C 
BRANCH  13  14
ATOM     14  CG  PHE A   1      26.618  42.381  54.258  0.00  0.00    -0.020 A 
ATOM     15  CD2 PHE A   1      27.903  41.867  54.177  0.00  0.00    -0.004 A 
ATOM     16  CE2 PHE A   1      28.799  42.404  53.284  0.00  0.00    -0.000 A 
ATOM     17  CZ  PHE A   1      28.458  43.529  52.498  0.00  0.00    -0.000 A 
ATOM     18  CE1 PHE A   1      27.191  44.045  52.579  0.00  0.00    -0.000 A 
ATOM     19  CD1 PHE A   1      26.277  43.470  53.461  0.00  0.00    -0.004 A 
ENDBRANCH  13  14
ENDBRANCH   1  13
TORSDOF 5
REMARK  Name = ../refined-set-2016/1usn/1usn_pocket.pdb
REMARK  134 active torsions:
REMARK  status: ('A' for Active; 'I' for Inactive)
REMARK    1  A    between atoms: _1  and  _3
REMARK    2  A    between atoms: _3  and  _4
REMARK    3  A    between atoms: _3  and  _6
REMARK    4  A    between atoms: _6  and  _7
REMARK    5  A    between atoms: _14  and  _15
REMARK    6  A    between atoms: _21  and  _22
REMARK    7  A    between atoms: _27  and  _29
REMARK    8  A    between atoms: _29  and  _30
REMARK    9  A    between atoms: _29  and  _32
REMARK   10  A    between atoms: _32  and  _33
REMARK   11  A    between atoms: _37  and  ZN_355
REMARK   12  A    between atoms: _38  and  _40
REMARK   13  A    between atoms: _40  and  _41
REMARK   14  A    between atoms: _40  and  _43
REMARK   15  A    between atoms: _43  and  _44
REMARK   16  A    between atoms: _44  and  _46
REMARK   17  A    between atoms: _46  and  ZN_355
REMARK   18  A    between atoms: _47  and  _49
REMARK   19  A    between atoms: _49  and  _50
REMARK   20  A    between atoms: _49  and  _52
REMARK   21  A    between atoms: _52  and  _53
REMARK   22  A    between atoms: _59  and  _61
REMARK   23  A    between atoms: _61  and  _62
REMARK   24  A    between atoms: _61  and  _64
REMARK   25  A    between atoms: _64  and  _65
REMARK   26  A    between atoms: _70  and  _71
REMARK   27  A    between atoms: _74  and  _75
REMARK   28  A    between atoms: _80  and  _82
REMARK   29  A    between atoms: _82  and  _83
REMARK   30  A    between atoms: _82  and  _85
REMARK   31  A    between atoms: _85  and  _86
REMARK   32  A    between atoms: _92  and  _94
REMARK   33  A    between atoms: _94  and  _95
REMARK   34  A    between atoms: _94  and  _97
REMARK   35  A    between atoms: _100  and  _102
REMARK   36  A    between atoms: _102  and  _103
REMARK   37  A    between atoms: _102  and  _105
REMARK   38  A    between atoms: _105  and  _106
REMARK   39  A    between atoms: _109  and  _111
REMARK   40  A    between atoms: _111  and  _112
REMARK   41  A    between atoms: _117  and  _118
REMARK   42  A    between atoms: _117  and  _120
REMARK   43  A    between atoms: _120  and  _121
REMARK   44  A    between atoms: _125  and  ZN_355
REMARK   45  A    between atoms: _126  and  _128
REMARK   46  A    between atoms: _128  and  _129
REMARK   47  A    between atoms: _132  and  _134
REMARK   48  A    between atoms: _134  and  _135
REMARK   49  A    between atoms: _134  and  _137
REMARK   50  A    between atoms: _137  and  _138
REMARK   51  A    between atoms: _143  and  _144
REMARK   52  A    between atoms: _146  and  _148
REMARK   53  A    between atoms: _148  and  _149
REMARK   54  A    between atoms: _153  and  _154
REMARK   55  A    between atoms: _159  and  _161
REMARK   56  A    between atoms: _161  and  _162
REMARK   57  A    between atoms: _161  and  _164
REMARK   58  A    between atoms: _164  and  _165
REMARK   59  A    between atoms: _168  and  _170
REMARK   60  A    between atoms: _170  and  _171
REMARK   61  A    between atoms: _170  and  _173
REMARK   62  A    between atoms: _173  and  _174
REMARK   63  A    between atoms: _179  and  _181
REMARK   64  A    between atoms: _181  and  _182
REMARK   65  A    between atoms: _184  and  _186
REMARK   66  A    between atoms: _186  and  _187
REMARK   67  A    between atoms: _186  and  _189
REMARK   68  A    between atoms: _189  and  _190
REMARK   69  A    between atoms: _193  and  _195
REMARK   70  A    between atoms: _195  and  _196
REMARK   71  A    between atoms: _199  and  _201
REMARK   72  A    between atoms: _201  and  _202
REMARK   73  A    between atoms: _201  and  _204
REMARK   74  A    between atoms: _204  and  _205
REMARK   75  A    between atoms: _206  and  ZN_355
REMARK   76  A    between atoms: _210  and  _212
REMARK   77  A    between atoms: _212  and  _213
REMARK   78  A    between atoms: _212  and  _215
REMARK   79  A    between atoms: _218  and  _220
REMARK   80  A    between atoms: _220  and  _221
REMARK   81  A    between atoms: _220  and  _223
REMARK   82  A    between atoms: _223  and  _224
REMARK   83  A    between atoms: _228  and  ZN_354
REMARK   84  A    between atoms: _229  and  _231
REMARK   85  A    between atoms: _231  and  _232
REMARK   86  A    between atoms: _231  and  _234
REMARK   87  A    between atoms: _234  and  _235
REMARK   88  A    between atoms: _235  and  _236
REMARK   89  A    between atoms: _239  and  _241
REMARK   90  A    between atoms: _241  and  _242
REMARK   91  A    between atoms: _241  and  _244
REMARK   92  A    between atoms: _244  and  _245
REMARK   93  A    between atoms: _248  and  _250
REMARK   94  A    between atoms: _250  and  _251
REMARK   95  A    between atoms: _250  and  _253
REMARK   96  A    between atoms: _253  and  _254
REMARK   97  A    between atoms: _258  and  ZN_354
REMARK   98  A    between atoms: _259  and  _261
REMARK   99  A    between atoms: _261  and  _262
REMARK  100  A    between atoms: _261  and  _264
REMARK  101  A    between atoms: _264  and  _265
REMARK  102  A    between atoms: _267  and  _269
REMARK  103  A    between atoms: _269  and  _270
REMARK  104  A    between atoms: _269  and  _272
REMARK  105  A    between atoms: _272  and  _273
REMARK  106  A    between atoms: _276  and  _278
REMARK  107  A    between atoms: _278  and  _279
REMARK  108  A    between atoms: _278  and  _281
REMARK  109  A    between atoms: _281  and  _282
REMARK  110  A    between atoms: _288  and  _290
REMARK  111  A    between atoms: _290  and  _291
REMARK  112  A    between atoms: _290  and  _293
REMARK  113  A    between atoms: _293  and  _294
REMARK  114  A    between atoms: _298  and  ZN_354
REMARK  115  A    between atoms: _299  and  _301
REMARK  116  A    between atoms: _301  and  _302
REMARK  117  A    between atoms: _301  and  _304
REMARK  118  A    between atoms: _304  and  _305
REMARK  119  A    between atoms: _305  and  _306
REMARK  120  A    between atoms: _308  and  _310
REMARK  121  A    between atoms: _310  and  _311
REMARK  122  A    between atoms: _310  and  _313
REMARK  123  A    between atoms: _313  and  _314
REMARK  124  A    between atoms: _319  and  _320
REMARK  125  A    between atoms: _323  and  _324
REMARK  126  A    between atoms: _329  and  _331
REMARK  127  A    between atoms: _331  and  _332
REMARK  128  A    between atoms: _331  and  _334
REMARK  129  A    between atoms: _334  and  _335
REMARK  130  A    between atoms: _340  and  _341
REMARK  131  A    between atoms: _343  and  _345
REMARK  132  A    between atoms: _345  and  _346
REMARK  133  A    between atoms: _345  and  _348
REMARK  134  A    between atoms: _348  and  _349
REMARK                            x       y       z     vdW  Elec       q    Type
REMARK                         _______ _______ _______ _____ _____    ______ ____
ROOT
ATOM      1  N   PRO A   1      25.196  36.820  56.800  0.00  0.00    -0.212 NA
ATOM      2  CD  PRO A   1      24.809  38.051  56.095  0.00  0.00    +0.089 C 
ATOM      3  CG  PRO A   1      25.518  37.907  54.745  0.00  0.00    +0.021 C 
ATOM      4  CB  PRO A   1      25.606  36.434  54.511  0.00  0.00    +0.027 C 
ATOM      5  CA  PRO A   1      25.744  35.785  55.895  0.00  0.00    +0.137 C 
ENDROOT
BRANCH   5   6
ATOM      6  C   PRO A   1      27.211  35.495  56.235  0.00  0.00    +0.224 C 
ATOM      7  O   PRO A   1      27.958  36.395  56.690  0.00  0.00    -0.287 OA
ENDBRANCH   5   6
TORSDOF 1
REMARK  Name = ../refined-set-2016/1usn/1usn_pocket.pdb
REMARK  134 active torsions:
REMARK  status: ('A' for Active; 'I' for Inactive)
REMARK    1  A    between atoms: _1  and  _3
REMARK    2  A    between atoms: _3  and  _4
REMARK    3  A    between atoms: _3  and  _6
REMARK    4  A    between atoms: _6  and  _7
REMARK    5  A    between atoms: _14  and  _15
REMARK    6  A    between atoms: _21  and  _22
REMARK    7  A    between atoms: _27  and  _29
REMARK    8  A    between atoms: _29  and  _30
REMARK    9  A    between atoms: _29  and  _32
REMARK   10  A    between atoms: _32  and  _33
REMARK   11  A    between atoms: _37  and  ZN_355
REMARK   12  A    between atoms: _38  and  _40
REMARK   13  A    between atoms: _40  and  _41
REMARK   14  A    between atoms: _40  and  _43
REMARK   15  A    between atoms: _43  and  _44
REMARK   16  A    between atoms: _44  and  _46
REMARK   17  A    between atoms: _46  and  ZN_355
REMARK   18  A    between atoms: _47  and  _49
REMARK   19  A    between atoms: _49  and  _50
REMARK   20  A    between atoms: _49  and  _52
REMARK   21  A    between atoms: _52  and  _53
REMARK   22  A    between atoms: _59  and  _61
REMARK   23  A    between atoms: _61  and  _62
REMARK   24  A    between atoms: _61  and  _64
REMARK   25  A    between atoms: _64  and  _65
REMARK   26  A    between atoms: _70  and  _71
REMARK   27  A    between atoms: _74  and  _75
REMARK   28  A    between atoms: _80  and  _82
REMARK   29  A    between atoms: _82  and  _83
REMARK   30  A    between atoms: _82  and  _85
REMARK   31  A    between atoms: _85  and  _86
REMARK   32  A    between atoms: _92  and  _94
REMARK   33  A    between atoms: _94  and  _95
REMARK   34  A    between atoms: _94  and  _97
REMARK   35  A    between atoms: _100  and  _102
REMARK   36  A    between atoms: _102  and  _103
REMARK   37  A    between atoms: _102  and  _105
REMARK   38  A    between atoms: _105  and  _106
REMARK   39  A    between atoms: _109  and  _111
REMARK   40  A    between atoms: _111  and  _112
REMARK   41  A    between atoms: _117  and  _118
REMARK   42  A    between atoms: _117  and  _120
REMARK   43  A    between atoms: _120  and  _121
REMARK   44  A    between atoms: _125  and  ZN_355
REMARK   45  A    between atoms: _126  and  _128
REMARK   46  A    between atoms: _128  and  _129
REMARK   47  A    between atoms: _132  and  _134
REMARK   48  A    between atoms: _134  and  _135
REMARK   49  A    between atoms: _134  and  _137
REMARK   50  A    between atoms: _137  and  _138
REMARK   51  A    between atoms: _143  and  _144
REMARK   52  A    between atoms: _146  and  _148
REMARK   53  A    between atoms: _148  and  _149
REMARK   54  A    between atoms: _153  and  _154
REMARK   55  A    between atoms: _159  and  _161
REMARK   56  A    between atoms: _161  and  _162
REMARK   57  A    between atoms: _161  and  _164
REMARK   58  A    between atoms: _164  and  _165
REMARK   59  A    between atoms: _168  and  _170
REMARK   60  A    between atoms: _170  and  _171
REMARK   61  A    between atoms: _170  and  _173
REMARK   62  A    between atoms: _173  and  _174
REMARK   63  A    between atoms: _179  and  _181
REMARK   64  A    between atoms: _181  and  _182
REMARK   65  A    between atoms: _184  and  _186
REMARK   66  A    between atoms: _186  and  _187
REMARK   67  A    between atoms: _186  and  _189
REMARK   68  A    between atoms: _189  and  _190
REMARK   69  A    between atoms: _193  and  _195
REMARK   70  A    between atoms: _195  and  _196
REMARK   71  A    between atoms: _199  and  _201
REMARK   72  A    between atoms: _201  and  _202
REMARK   73  A    between atoms: _201  and  _204
REMARK   74  A    between atoms: _204  and  _205
REMARK   75  A    between atoms: _206  and  ZN_355
REMARK   76  A    between atoms: _210  and  _212
REMARK   77  A    between atoms: _212  and  _213
REMARK   78  A    between atoms: _212  and  _215
REMARK   79  A    between atoms: _218  and  _220
REMARK   80  A    between atoms: _220  and  _221
REMARK   81  A    between atoms: _220  and  _223
REMARK   82  A    between atoms: _223  and  _224
REMARK   83  A    between atoms: _228  and  ZN_354
REMARK   84  A    between atoms: _229  and  _231
REMARK   85  A    between atoms: _231  and  _232
REMARK   86  A    between atoms: _231  and  _234
REMARK   87  A    between atoms: _234  and  _235
REMARK   88  A    between atoms: _235  and  _236
REMARK   89  A    between atoms: _239  and  _241
REMARK   90  A    between atoms: _241  and  _242
REMARK   91  A    between atoms: _241  and  _244
REMARK   92  A    between atoms: _244  and  _245
REMARK   93  A    between atoms: _248  and  _250
REMARK   94  A    between atoms: _250  and  _251
REMARK   95  A    between atoms: _250  and  _253
REMARK   96  A    between atoms: _253  and  _254
REMARK   97  A    between atoms: _258  and  ZN_354
REMARK   98  A    between atoms: _259  and  _261
REMARK   99  A    between atoms: _261  and  _262
REMARK  100  A    between atoms: _261  and  _264
REMARK  101  A    between atoms: _264  and  _265
REMARK  102  A    between atoms: _267  and  _269
REMARK  103  A    between atoms: _269  and  _270
REMARK  104  A    between atoms: _269  and  _272
REMARK  105  A    between atoms: _272  and  _273
REMARK  106  A    between atoms: _276  and  _278
REMARK  107  A    between atoms: _278  and  _279
REMARK  108  A    between atoms: _278  and  _281
REMARK  109  A    between atoms: _281  and  _282
REMARK  110  A    between atoms: _288  and  _290
REMARK  111  A    between atoms: _290  and  _291
REMARK  112  A    between atoms: _290  and  _293
REMARK  113  A    between atoms: _293  and  _294
REMARK  114  A    between atoms: _298  and  ZN_354
REMARK  115  A    between atoms: _299  and  _301
REMARK  116  A    between atoms: _301  and  _302
REMARK  117  A    between atoms: _301  and  _304
REMARK  118  A    between atoms: _304  and  _305
REMARK  119  A    between atoms: _305  and  _306
REMARK  120  A    between atoms: _308  and  _310
REMARK  121  A    between atoms: _310  and  _311
REMARK  122  A    between atoms: _310  and  _313
REMARK  123  A    between atoms: _313  and  _314
REMARK  124  A    between atoms: _319  and  _320
REMARK  125  A    between atoms: _323  and  _324
REMARK  126  A    between atoms: _329  and  _331
REMARK  127  A    between atoms: _331  and  _332
REMARK  128  A    between atoms: _331  and  _334
REMARK  129  A    between atoms: _334  and  _335
REMARK  130  A    between atoms: _340  and  _341
REMARK  131  A    between atoms: _343  and  _345
REMARK  132  A    between atoms: _345  and  _346
REMARK  133  A    between atoms: _345  and  _348
REMARK  134  A    between atoms: _348  and  _349
REMARK                            x       y       z     vdW  Elec       q    Type
REMARK                         _______ _______ _______ _____ _____    ______ ____
ROOT
ATOM      1 ZN   UNK A   4      30.019  44.044  39.313  0.00  0.00    +0.000 Zn
ENDROOT
BRANCH   1   4
ATOM      2  C   UNK A   4      30.718  44.681  35.235  0.00  0.00    +0.000 C 
ATOM      3  C   UNK A   4      30.574  43.948  36.363  0.00  0.00    +0.000 C 
ATOM      4  N   UNK A   4      30.424  44.826  37.401  0.00  0.00    +0.000 NA
ATOM      5  C   UNK A   4      30.130  46.004  36.905  0.00  0.00    +0.000 C 
ATOM      6  N   UNK A   4      30.421  45.972  35.594  0.00  0.00    +0.000 NA
BRANCH   2   7
ATOM      7  C   UNK A   4      31.050  44.269  33.830  0.00  0.00    +0.000 C 
BRANCH   7   8
ATOM      8  C   UNK A   4      29.756  43.910  33.011  0.00  0.00    +0.000 C 
BRANCH   8   9
ATOM      9  C   UNK A   4      29.138  42.640  33.461  0.00  0.00    +0.000 C 
ATOM     10  O   UNK A   1      29.818  41.582  33.738  0.00  0.00    +0.000 OA
ENDBRANCH   8   9
BRANCH   8  11
ATOM     11  N   UNK A   4      28.868  45.098  33.050  0.00  0.00    +0.000 NA
ATOM     12  H   UNK A   1      28.133  45.172  33.782  0.00  0.00    +0.000 HD
ENDBRANCH   8  11
ENDBRANCH   7   8
ENDBRANCH   2   7
ENDBRANCH   1   4
BRANCH   1  13
ATOM     13  N   UNK A   4      29.996  45.554  40.854  0.00  0.00    +0.000 N 
ATOM     14  C   UNK A   4      30.657  45.343  42.041  0.00  0.00    +0.000 A 
ATOM     15  C   UNK A   4      30.424  46.386  42.858  0.00  0.00    +0.000 A 
ATOM     16  N   UNK A   4      29.807  47.335  42.033  0.00  0.00    +0.000 NA
ATOM     17  C   UNK A   4      29.537  46.785  40.873  0.00  0.00    +0.000 A 
BRANCH  15  18
ATOM     18  C   UNK A   4      30.916  46.728  44.232  0.00  0.00    +0.000 C 
BRANCH  18  19
ATOM     19  C   UNK A   4      32.336  46.286  44.560  0.00  0.00    +0.000 C 
ATOM     20  N   UNK A   4      33.482  46.853  43.874  0.00  0.00    +0.000 N 
ATOM     21  C   TYR A   3      33.783  48.149  43.942  0.00  0.00    +0.000 C 
ATOM     22  O   TYR A   3      33.176  48.951  44.681  0.00  0.00    +0.000 OA
ATOM     23  H   UNK A   4      34.090  46.226  43.309  0.00  0.00    +0.000 HD
BRANCH  19  24
ATOM     24  C   UNK A   4      32.458  44.779  44.715  0.00  0.00    +0.000 C 
ATOM     25  N   PHE A   5      32.123  44.328  45.904  0.00  0.00    +0.000 N 
ATOM     26  H   PHE A   5      31.779  45.032  46.587  0.00  0.00    +0.000 HD
ATOM     27  O   UNK A   4      33.042  44.046  43.846  0.00  0.00    +0.000 OA
BRANCH  25  28
ATOM     28  CA  PHE A   5      32.183  42.940  46.369  0.00  0.00    +0.000 C 
ATOM     29  CB  PHE A   5      33.342  42.809  47.340  0.00  0.00    +0.000 C 
BRANCH  28  30
ATOM     30  C   PHE A   5      30.897  42.447  46.978  0.00  0.00    +0.000 C 
ATOM     31  O   PHE A   5      30.076  43.227  47.491  0.00  0.00    +0.000 OA
ATOM     32  N   UNK A   6      30.597  41.149  46.804  0.00  0.00    +0.000 N 
ATOM     33  H   UNK A   6      31.253  40.531  46.285  0.00  0.00    +0.000 HD
BRANCH  32  34
ATOM     34  C   UNK A   6      29.319  40.586  47.356  0.00  0.00    +0.000 C 
BRANCH  34  35
ATOM     35  C   UNK A   6      29.603  39.755  48.595  0.00  0.00    +0.000 C 
ATOM     36  N   ALA A   7      28.691  39.698  49.540  0.00  0.00    +0.000 N 
ATOM     37  H   ALA A   7      27.833  40.267  49.394  0.00  0.00    +0.000 HD
ATOM     38  O   UNK A   6      30.673  39.134  48.698  0.00  0.00    +0.000 OA
BRANCH  36  39
ATOM     39  CA  ALA A   7      28.759  38.902  50.801  0.00  0.00    +0.000 C 
ATOM     40  CB  ALA A   7      27.508  39.386  51.576  0.00  0.00    +0.000 C 
BRANCH  39  41
ATOM     41  C   ALA A   7      28.848  37.425  50.586  0.00  0.00    +0.000 C 
ATOM     42  N   PRO A   8      29.319  36.573  51.519  0.00  0.00    +0.000 N 
ATOM     43  CD  PRO A   8      29.703  37.027  52.888  0.00  0.00    +0.000 C 
ATOM     44  CG  PRO A   8      30.410  35.826  53.520  0.00  0.00    +0.000 C 
ATOM     45  CB  PRO A   8      29.992  34.643  52.729  0.00  0.00    +0.000 C 
ATOM     46  CA  PRO A   8      29.545  35.139  51.335  0.00  0.00    +0.000 C 
ATOM     47  O   ALA A   7      28.557  36.968  49.439  0.00  0.00    +0.000 OA
BRANCH  46  48
ATOM     48  C   PRO A   8      28.338  34.356  50.821  0.00  0.00    +0.000 C 
ATOM     49  O   PRO A   8      27.212  34.780  51.180  0.00  0.00    +0.000 OA
ENDBRANCH  46  48
ENDBRANCH  39  41
ENDBRANCH  36  39
ENDBRANCH  34  35
BRANCH  34  50
ATOM     50  C   UNK A   6      28.695  39.659  46.271  0.00  0.00    +0.000 C 
BRANCH  50  51
ATOM     51  C   UNK A   6      28.285  40.450  45.059  0.00  0.00    +0.000 A 
ATOM     52  C   UNK A   6      26.970  40.891  44.988  0.00  0.00    +0.000 A 
ATOM     53  C   UNK A   6      26.560  41.654  43.901  0.00  0.00    +0.000 A 
ATOM     54  C   UNK A   6      27.439  41.915  42.869  0.00  0.00    +0.000 A 
ATOM     55  C   UNK A   6      28.764  41.501  42.927  0.00  0.00    +0.000 A 
ATOM     56  C   UNK A   6      29.188  40.728  44.022  0.00  0.00    +0.000 A 
BRANCH  54  57
ATOM     57  O   UNK A   6      26.908  42.693  41.856  0.00  0.00    +0.000 OA
ATOM     58  H   UNK A   6      27.594  42.836  41.157  0.00  0.00    +0.000 HD
ENDBRANCH  54  57
ENDBRANCH  50  51
ENDBRANCH  34  50
ENDBRANCH  32  34
ENDBRANCH  28  30
ENDBRANCH  25  28
ENDBRANCH  19  24
BRANCH  21  59
ATOM     59  CA  TYR A   3      35.030  48.652  43.209  0.00  0.00    +0.000 C 
ATOM     60  CB  TYR A   3      36.284  48.082  43.906  0.00  0.00    +0.000 C 
BRANCH  59  61
ATOM     61  N   TYR A   3      35.102  50.130  43.184  0.00  0.00    +0.000 N 
ATOM     62  H   TYR A   3      34.383  50.651  43.725  0.00  0.00    +0.000 HD
ATOM     63  C   PHE A   2      35.987  50.830  42.544  0.00  0.00    +0.000 C 
ATOM     64  O   PHE A   2      36.790  50.273  41.748  0.00  0.00    +0.000 OA
BRANCH  63  65
ATOM     65  CA  PHE A   2      36.009  52.355  42.718  0.00  0.00    +0.000 C 
BRANCH  65  66
ATOM     66  N   PHE A   2      34.730  52.920  43.137  0.00  0.00    +0.000 N 
ATOM     67  H   PHE A   2      34.414  52.779  44.118  0.00  0.00    +0.000 HD
ATOM     68  C   UNK A   1      33.961  53.605  42.309  0.00  0.00    +0.000 C 
ATOM     69  O   UNK A   1      34.212  53.736  41.074  0.00  0.00    +0.000 OA
BRANCH  68  70
ATOM     70  C   UNK A   1      32.610  54.207  42.756  0.00  0.00    +0.000 C 
BRANCH  70  71
ATOM     71  C   UNK A   1      31.420  53.360  42.314  0.00  0.00    +0.000 C 
ATOM     72  C   UNK A   1      30.068  53.659  42.903  0.00  0.00    +0.000 C 
ATOM     73  C   UNK A   1      31.698  51.844  42.539  0.00  0.00    +0.000 C 
ENDBRANCH  70  71
BRANCH  70  74
ATOM     74  N   UNK A   1      32.522  55.604  42.316  0.00  0.00    +0.000 NA
ATOM     75  H   UNK A   1      31.824  55.847  41.584  0.00  0.00    +0.000 HD
ENDBRANCH  70  74
ENDBRANCH  68  70
ENDBRANCH  65  66
BRANCH  65  76
ATOM     76  CB  PHE A   2      37.089  52.683  43.786  0.00  0.00    +0.000 C 
BRANCH  76  77
ATOM     77  CG  PHE A   2      37.320  54.081  44.262  0.00  0.00    +0.000 C 
ATOM     78  CD2 PHE A   2      38.231  54.103  45.485  0.00  0.00    +0.000 C 
ATOM     79  CD1 PHE A   2      37.694  55.076  43.203  0.00  0.00    +0.000 C 
ENDBRANCH  76  77
ENDBRANCH  65  76
ENDBRANCH  63  65
ENDBRANCH  59  61
ENDBRANCH  21  59
ENDBRANCH  18  19
ENDBRANCH  15  18
ENDBRANCH   1  13
BRANCH   1  80
ATOM     80  N   UNK A   4      31.315  42.449  39.665  0.00  0.00    +0.000 N 
ATOM     81  C   UNK A   4      32.707  42.370  39.822  0.00  0.00    +0.000 A 
ATOM     82  C   UNK A   4      33.004  41.070  39.612  0.00  0.00    +0.000 A 
ATOM     83  N   UNK A   4      31.851  40.373  39.510  0.00  0.00    +0.000 NA
ATOM     84  C   UNK A   4      30.849  41.194  39.576  0.00  0.00    +0.000 A 
BRANCH  81  85
ATOM     85  C   UNK A   4      33.600  43.570  39.998  0.00  0.00    +0.000 C 
BRANCH  85  86
ATOM     86  C   UNK A   4      34.959  43.457  40.687  0.00  0.00    +0.000 C 
BRANCH  86  87
ATOM     87  N   UNK A   4      34.790  42.797  42.012  0.00  0.00    +0.000 N 
ATOM     88  H   UNK A   4      34.200  43.297  42.707  0.00  0.00    +0.000 HD
ATOM     89  C   PHE A   5      35.297  41.671  42.391  0.00  0.00    +0.000 C 
ATOM     90  O   PHE A   5      36.196  41.148  41.692  0.00  0.00    +0.000 OA
BRANCH  89  91
ATOM     91  CA  PHE A   5      35.009  41.084  43.775  0.00  0.00    +0.000 C 
ATOM     92  CB  PHE A   5      36.279  41.308  44.645  0.00  0.00    +0.000 C 
BRANCH  91  93
ATOM     93  N   PHE A   5      34.595  39.691  43.831  0.00  0.00    +0.000 N 
ATOM     94  C   UNK A   4      33.440  39.244  44.284  0.00  0.00    +0.000 C 
ATOM     95  O   UNK A   4      32.619  40.009  44.849  0.00  0.00    +0.000 OA
ATOM     96  H   PHE A   5      35.272  38.983  43.482  0.00  0.00    +0.000 HD
BRANCH  94  97
ATOM     97  C   UNK A   4      33.089  37.776  44.147  0.00  0.00    +0.000 C 
BRANCH  97  98
ATOM     98  N   UNK A   4      32.250  37.229  45.236  0.00  0.00    +0.000 N 
ATOM     99  C   TYR A   3      32.660  37.094  46.475  0.00  0.00    +0.000 C 
ATOM    100  O   TYR A   3      33.867  37.328  46.761  0.00  0.00    +0.000 OA
ATOM    101  H   UNK A   4      31.279  36.935  45.006  0.00  0.00    +0.000 HD
BRANCH  99 102
ATOM    102  CA  TYR A   3      31.799  36.428  47.544  0.00  0.00    +0.000 C 
BRANCH 102 103
ATOM    103  N   TYR A   3      30.368  36.400  47.245  0.00  0.00    +0.000 N 
ATOM    104  H   TYR A   3      29.754  37.066  47.755  0.00  0.00    +0.000 HD
ATOM    105  C   PHE A   2      29.810  35.599  46.385  0.00  0.00    +0.000 C 
ATOM    106  O   PHE A   2      30.397  34.659  45.781  0.00  0.00    +0.000 OA
BRANCH 105 107
ATOM    107  CA  PHE A   2      28.314  35.769  46.195  0.00  0.00    +0.000 C 
BRANCH 107 108
ATOM    108  N   PHE A   2      27.975  35.508  44.764  0.00  0.00    +0.000 N 
ATOM    109  H   PHE A   2      27.190  34.866  44.532  0.00  0.00    +0.000 HD
ATOM    110  C   UNK A   1      28.668  36.090  43.772  0.00  0.00    +0.000 C 
ATOM    111  O   UNK A   1      29.584  36.967  43.959  0.00  0.00    +0.000 OA
BRANCH 110 112
ATOM    112  C   UNK A   1      28.249  35.627  42.384  0.00  0.00    +0.000 C 
BRANCH 112 113
ATOM    113  N   UNK A   1      27.656  34.250  42.396  0.00  0.00    +0.000 NA
ATOM    114  H   UNK A   1      26.655  34.117  42.147  0.00  0.00    +0.000 HD
ENDBRANCH 112 113
BRANCH 112 115
ATOM    115  C   UNK A   1      27.394  36.610  41.540  0.00  0.00    +0.000 C 
ATOM    116  C   UNK A   1      26.081  37.044  42.285  0.00  0.00    +0.000 C 
BRANCH 115 117
ATOM    117  C   UNK A   1      28.243  37.906  41.260  0.00  0.00    +0.000 C 
ATOM    118  C   UNK A   1      27.470  38.924  40.381  0.00  0.00    +0.000 C 
ENDBRANCH 115 117
ENDBRANCH 112 115
ENDBRANCH 110 112
ENDBRANCH 107 108
BRANCH 107 119
ATOM    119  CB  PHE A   2      27.371  35.034  47.110  0.00  0.00    +0.000 C 
BRANCH 119 120
ATOM    120  CG  PHE A   2      25.962  35.573  46.975  0.00  0.00    +0.000 C 
ATOM    121  ND2 PHE A   2      25.725  36.871  47.101  0.00  0.00    +0.000 N 
ATOM    122 HD21 PHE A   2      26.486  37.511  47.406  0.00  0.00    +0.000 HD
ATOM    123 HD22 PHE A   2      24.778  37.249  46.895  0.00  0.00    +0.000 HD
ATOM    124  OD1 PHE A   2      25.035  34.809  46.606  0.00  0.00    +0.000 OA
ENDBRANCH 119 120
ENDBRANCH 107 119
ENDBRANCH 105 107
ENDBRANCH 102 103
ENDBRANCH  99 102
ENDBRANCH  97  98
BRANCH  97 125
ATOM    125  C   UNK A   4      32.475  37.468  42.748  0.00  0.00    +0.000 C 
BRANCH 125 126
ATOM    126  C   UNK A   4      32.370  35.987  42.445  0.00  0.00    +0.000 C 
ATOM    127  O   UNK A   4      32.704  35.067  43.233  0.00  0.00    +0.000 OA
ATOM    128  O   UNK A   4      31.795  35.732  41.330  0.00  0.00    +0.000 OA
ENDBRANCH 125 126
ENDBRANCH  97 125
ENDBRANCH  94  97
ENDBRANCH  91  93
ENDBRANCH  89  91
ENDBRANCH  86  87
BRANCH  86 129
ATOM    129  C   UNK A   4      35.575  44.860  40.872  0.00  0.00    +0.000 C 
ATOM    130  O   UNK A   6      35.140  45.568  41.778  0.00  0.00    +0.000 OA
ENDBRANCH  86 129
ENDBRANCH  85  86
ENDBRANCH  81  85
ENDBRANCH   1  80
BRANCH   1 131
ATOM    131  O   UNK A   4      28.306  43.006  39.293  0.00  0.00    +0.000 OA
BRANCH 131 132
ATOM    132  C   UNK A   4      27.275  43.212  38.542  0.00  0.00    +0.000 C 
ATOM    133  O   UNK A   4      27.076  44.358  38.092  0.00  0.00    +0.000 OA
BRANCH 132 134
ATOM    134  C   UNK A   4      26.345  42.078  38.249  0.00  0.00    +0.000 C 
BRANCH 134 135
ATOM    135  C   UNK A   4      25.335  42.234  37.102  0.00  0.00    +0.000 C 
BRANCH 135 136
ATOM    136  C   UNK A   4      24.446  43.458  37.119  0.00  0.00    +0.000 C 
ATOM    137  N   PHE A   2      23.734  43.638  38.207  0.00  0.00    +0.000 N 
ATOM    138  H   PHE A   2      23.800  42.938  38.974  0.00  0.00    +0.000 HD
ATOM    139  O   UNK A   4      24.538  44.251  36.156  0.00  0.00    +0.000 OA
BRANCH 137 140
ATOM    140  CA  PHE A   2      22.846  44.798  38.376  0.00  0.00    +0.000 C 
BRANCH 140 141
ATOM    141  C   PHE A   2      23.540  46.105  38.653  0.00  0.00    +0.000 C 
ATOM    142  N   TYR A   3      24.833  46.087  38.873  0.00  0.00    +0.000 N 
ATOM    143  H   TYR A   3      25.376  45.202  38.810  0.00  0.00    +0.000 HD
ATOM    144  O   PHE A   2      22.813  47.119  38.751  0.00  0.00    +0.000 OA
BRANCH 142 145
ATOM    145  CA  TYR A   3      25.496  47.373  39.215  0.00  0.00    +0.000 C 
BRANCH 145 146
ATOM    146  C   TYR A   3      26.624  47.801  38.316  0.00  0.00    +0.000 C 
ATOM    147  O   TYR A   3      27.801  47.488  38.599  0.00  0.00    +0.000 OA
ATOM    148  N   UNK A   4      26.318  48.579  37.253  0.00  0.00    +0.000 N 
ATOM    149  C   UNK A   4      24.934  48.881  36.836  0.00  0.00    +0.000 C 
ATOM    150  C   UNK A   4      25.047  49.362  35.399  0.00  0.00    +0.000 C 
ATOM    151  C   UNK A   4      26.436  49.826  35.239  0.00  0.00    +0.000 C 
ATOM    152  C   UNK A   4      27.302  49.107  36.313  0.00  0.00    +0.000 C 
BRANCH 152 153
ATOM    153  C   UNK A   4      28.255  50.128  36.888  0.00  0.00    +0.000 C 
ATOM    154  O   UNK A   4      27.916  51.007  37.708  0.00  0.00    +0.000 OA
ATOM    155  N   PHE A   5      29.493  50.038  36.425  0.00  0.00    +0.000 N 
ATOM    156  H   PHE A   5      29.709  49.269  35.758  0.00  0.00    +0.000 HD
BRANCH 155 157
ATOM    157  CA  PHE A   5      30.573  50.949  36.791  0.00  0.00    +0.000 C 
BRANCH 157 158
ATOM    158  C   PHE A   5      30.167  52.302  36.209  0.00  0.00    +0.000 C 
ATOM    159  O   PHE A   5      29.294  52.336  35.329  0.00  0.00    +0.000 OA
ENDBRANCH 157 158
BRANCH 157 160
ATOM    160  CB  PHE A   5      31.997  50.463  36.653  0.00  0.00    +0.000 C 
BRANCH 160 161
ATOM    161  CG  PHE A   5      32.359  49.353  37.629  0.00  0.00    +0.000 A 
ATOM    162  CD2 PHE A   5      32.163  49.549  39.003  0.00  0.00    +0.000 A 
ATOM    163  CE2 PHE A   5      32.509  48.571  39.926  0.00  0.00    +0.000 A 
ATOM    164  CZ  PHE A   5      33.119  47.384  39.485  0.00  0.00    +0.000 A 
ATOM    165  CE1 PHE A   5      33.387  47.199  38.101  0.00  0.00    +0.000 A 
ATOM    166  CD1 PHE A   5      33.039  48.215  37.187  0.00  0.00    +0.000 A 
ENDBRANCH 160 161
ENDBRANCH 157 160
ENDBRANCH 155 157
ENDBRANCH 152 153
ENDBRANCH 145 146
BRANCH 145 167
ATOM    167  CB  TYR A   3      26.021  47.186  40.666  0.00  0.00    +0.000 C 
BRANCH 167 168
ATOM    168  CG  TYR A   3      24.918  46.853  41.633  0.00  0.00    +0.000 A 
ATOM    169  CD2 TYR A   3      24.768  45.570  42.142  0.00  0.00    +0.000 A 
ATOM    170  CE2 TYR A   3      23.777  45.279  43.064  0.00  0.00    +0.000 A 
ATOM    171  CZ  TYR A   3      22.876  46.253  43.477  0.00  0.00    +0.000 A 
ATOM    172  CE1 TYR A   3      22.982  47.555  42.964  0.00  0.00    +0.000 A 
ATOM    173  CD1 TYR A   3      23.993  47.835  42.036  0.00  0.00    +0.000 A 
BRANCH 171 174
ATOM    174  OH  TYR A   3      21.911  45.900  44.374  0.00  0.00    +0.000 OA
ATOM    175  HH  TYR A   3      21.346  46.687  44.576  0.00  0.00    +0.000 HD
ENDBRANCH 171 174
ENDBRANCH 167 168
ENDBRANCH 145 167
ENDBRANCH 142 145
ENDBRANCH 140 141
BRANCH 140 176
ATOM    176  CB  PHE A   2      21.816  44.592  39.503  0.00  0.00    +0.000 C 
BRANCH 176 177
ATOM    177  CG  PHE A   2      20.915  43.450  39.150  0.00  0.00    +0.000 A 
ATOM    178  CD2 PHE A   2      20.618  42.447  40.034  0.00  0.00    +0.000 A 
ATOM    179  CE2 PHE A   2      19.775  41.377  39.665  0.00  0.00    +0.000 A 
ATOM    180  CZ  PHE A   2      19.260  41.351  38.355  0.00  0.00    +0.000 A 
ATOM    181  CE1 PHE A   2      19.543  42.391  37.455  0.00  0.00    +0.000 A 
ATOM    182  CD1 PHE A   2      20.358  43.442  37.857  0.00  0.00    +0.000 A 
ENDBRANCH 176 177
ENDBRANCH 140 176
ENDBRANCH 137 140
ENDBRANCH 135 136
BRANCH 135 183
ATOM    183  N   UNK A   4      26.040  42.289  35.786  0.00  0.00    +0.000 NA
ATOM    184  H   UNK A   1      26.214  43.215  35.346  0.00  0.00    +0.000 HD
ENDBRANCH 135 183
ENDBRANCH 134 135
ENDBRANCH 132 134
ENDBRANCH 131 132
ENDBRANCH   1 131
TORSDOF 69
REMARK  Name = ../refined-set-2016/1usn/1usn_pocket.pdb
REMARK  134 active torsions:
REMARK  status: ('A' for Active; 'I' for Inactive)
REMARK    1  A    between atoms: _1  and  _3
REMARK    2  A    between atoms: _3  and  _4
REMARK    3  A    between atoms: _3  and  _6
REMARK    4  A    between atoms: _6  and  _7
REMARK    5  A    between atoms: _14  and  _15
REMARK    6  A    between atoms: _21  and  _22
REMARK    7  A    between atoms: _27  and  _29
REMARK    8  A    between atoms: _29  and  _30
REMARK    9  A    between atoms: _29  and  _32
REMARK   10  A    between atoms: _32  and  _33
REMARK   11  A    between atoms: _37  and  ZN_355
REMARK   12  A    between atoms: _38  and  _40
REMARK   13  A    between atoms: _40  and  _41
REMARK   14  A    between atoms: _40  and  _43
REMARK   15  A    between atoms: _43  and  _44
REMARK   16  A    between atoms: _44  and  _46
REMARK   17  A    between atoms: _46  and  ZN_355
REMARK   18  A    between atoms: _47  and  _49
REMARK   19  A    between atoms: _49  and  _50
REMARK   20  A    between atoms: _49  and  _52
REMARK   21  A    between atoms: _52  and  _53
REMARK   22  A    between atoms: _59  and  _61
REMARK   23  A    between atoms: _61  and  _62
REMARK   24  A    between atoms: _61  and  _64
REMARK   25  A    between atoms: _64  and  _65
REMARK   26  A    between atoms: _70  and  _71
REMARK   27  A    between atoms: _74  and  _75
REMARK   28  A    between atoms: _80  and  _82
REMARK   29  A    between atoms: _82  and  _83
REMARK   30  A    between atoms: _82  and  _85
REMARK   31  A    between atoms: _85  and  _86
REMARK   32  A    between atoms: _92  and  _94
REMARK   33  A    between atoms: _94  and  _95
REMARK   34  A    between atoms: _94  and  _97
REMARK   35  A    between atoms: _100  and  _102
REMARK   36  A    between atoms: _102  and  _103
REMARK   37  A    between atoms: _102  and  _105
REMARK   38  A    between atoms: _105  and  _106
REMARK   39  A    between atoms: _109  and  _111
REMARK   40  A    between atoms: _111  and  _112
REMARK   41  A    between atoms: _117  and  _118
REMARK   42  A    between atoms: _117  and  _120
REMARK   43  A    between atoms: _120  and  _121
REMARK   44  A    between atoms: _125  and  ZN_355
REMARK   45  A    between atoms: _126  and  _128
REMARK   46  A    between atoms: _128  and  _129
REMARK   47  A    between atoms: _132  and  _134
REMARK   48  A    between atoms: _134  and  _135
REMARK   49  A    between atoms: _134  and  _137
REMARK   50  A    between atoms: _137  and  _138
REMARK   51  A    between atoms: _143  and  _144
REMARK   52  A    between atoms: _146  and  _148
REMARK   53  A    between atoms: _148  and  _149
REMARK   54  A    between atoms: _153  and  _154
REMARK   55  A    between atoms: _159  and  _161
REMARK   56  A    between atoms: _161  and  _162
REMARK   57  A    between atoms: _161  and  _164
REMARK   58  A    between atoms: _164  and  _165
REMARK   59  A    between atoms: _168  and  _170
REMARK   60  A    between atoms: _170  and  _171
REMARK   61  A    between atoms: _170  and  _173
REMARK   62  A    between atoms: _173  and  _174
REMARK   63  A    between atoms: _179  and  _181
REMARK   64  A    between atoms: _181  and  _182
REMARK   65  A    between atoms: _184  and  _186
REMARK   66  A    between atoms: _186  and  _187
REMARK   67  A    between atoms: _186  and  _189
REMARK   68  A    between atoms: _189  and  _190
REMARK   69  A    between atoms: _193  and  _195
REMARK   70  A    between atoms: _195  and  _196
REMARK   71  A    between atoms: _199  and  _201
REMARK   72  A    between atoms: _201  and  _202
REMARK   73  A    between atoms: _201  and  _204
REMARK   74  A    between atoms: _204  and  _205
REMARK   75  A    between atoms: _206  and  ZN_355
REMARK   76  A    between atoms: _210  and  _212
REMARK   77  A    between atoms: _212  and  _213
REMARK   78  A    between atoms: _212  and  _215
REMARK   79  A    between atoms: _218  and  _220
REMARK   80  A    between atoms: _220  and  _221
REMARK   81  A    between atoms: _220  and  _223
REMARK   82  A    between atoms: _223  and  _224
REMARK   83  A    between atoms: _228  and  ZN_354
REMARK   84  A    between atoms: _229  and  _231
REMARK   85  A    between atoms: _231  and  _232
REMARK   86  A    between atoms: _231  and  _234
REMARK   87  A    between atoms: _234  and  _235
REMARK   88  A    between atoms: _235  and  _236
REMARK   89  A    between atoms: _239  and  _241
REMARK   90  A    between atoms: _241  and  _242
REMARK   91  A    between atoms: _241  and  _244
REMARK   92  A    between atoms: _244  and  _245
REMARK   93  A    between atoms: _248  and  _250
REMARK   94  A    between atoms: _250  and  _251
REMARK   95  A    between atoms: _250  and  _253
REMARK   96  A    between atoms: _253  and  _254
REMARK   97  A    between atoms: _258  and  ZN_354
REMARK   98  A    between atoms: _259  and  _261
REMARK   99  A    between atoms: _261  and  _262
REMARK  100  A    between atoms: _261  and  _264
REMARK  101  A    between atoms: _264  and  _265
REMARK  102  A    between atoms: _267  and  _269
REMARK  103  A    between atoms: _269  and  _270
REMARK  104  A    between atoms: _269  and  _272
REMARK  105  A    between atoms: _272  and  _273
REMARK  106  A    between atoms: _276  and  _278
REMARK  107  A    between atoms: _278  and  _279
REMARK  108  A    between atoms: _278  and  _281
REMARK  109  A    between atoms: _281  and  _282
REMARK  110  A    between atoms: _288  and  _290
REMARK  111  A    between atoms: _290  and  _291
REMARK  112  A    between atoms: _290  and  _293
REMARK  113  A    between atoms: _293  and  _294
REMARK  114  A    between atoms: _298  and  ZN_354
REMARK  115  A    between atoms: _299  and  _301
REMARK  116  A    between atoms: _301  and  _302
REMARK  117  A    between atoms: _301  and  _304
REMARK  118  A    between atoms: _304  and  _305
REMARK  119  A    between atoms: _305  and  _306
REMARK  120  A    between atoms: _308  and  _310
REMARK  121  A    between atoms: _310  and  _311
REMARK  122  A    between atoms: _310  and  _313
REMARK  123  A    between atoms: _313  and  _314
REMARK  124  A    between atoms: _319  and  _320
REMARK  125  A    between atoms: _323  and  _324
REMARK  126  A    between atoms: _329  and  _331
REMARK  127  A    between atoms: _331  and  _332
REMARK  128  A    between atoms: _331  and  _334
REMARK  129  A    between atoms: _334  and  _335
REMARK  130  A    between atoms: _340  and  _341
REMARK  131  A    between atoms: _343  and  _345
REMARK  132  A    between atoms: _345  and  _346
REMARK  133  A    between atoms: _345  and  _348
REMARK  134  A    between atoms: _348  and  _349
REMARK                            x       y       z     vdW  Elec       q    Type
REMARK                         _______ _______ _______ _____ _____    ______ ____
ROOT
ATOM      1  CA  VAL A   1      41.163  48.881  48.053  0.00  0.00    +0.133 C 
ENDROOT
BRANCH   1   2
ATOM      2  CB  VAL A   1      40.934  49.593  46.698  0.00  0.00    +0.023 C 
ATOM      3  CG2 VAL A   1      40.969  51.142  46.768  0.00  0.00    +0.002 C 
ATOM      4  CG1 VAL A   1      39.570  49.223  46.115  0.00  0.00    +0.002 C 
ENDBRANCH   1   2
BRANCH   1   5
ATOM      5  N   VAL A   1      42.553  49.142  48.495  0.00  0.00    -0.239 NA
ATOM      6  H   VAL A   1      43.222  49.588  47.836  0.00  0.00    +0.142 HD
ENDBRANCH   1   5
BRANCH   1   7
ATOM      7  C   VAL A   1      40.901  47.385  48.126  0.00  0.00    +0.224 C 
ATOM      8  O   VAL A   1      39.791  46.943  48.485  0.00  0.00    -0.287 OA
ENDBRANCH   1   7
TORSDOF 3
REMARK  Name = ../refined-set-2016/1usn/1usn_pocket.pdb
REMARK  134 active torsions:
REMARK  status: ('A' for Active; 'I' for Inactive)
REMARK    1  A    between atoms: _1  and  _3
REMARK    2  A    between atoms: _3  and  _4
REMARK    3  A    between atoms: _3  and  _6
REMARK    4  A    between atoms: _6  and  _7
REMARK    5  A    between atoms: _14  and  _15
REMARK    6  A    between atoms: _21  and  _22
REMARK    7  A    between atoms: _27  and  _29
REMARK    8  A    between atoms: _29  and  _30
REMARK    9  A    between atoms: _29  and  _32
REMARK   10  A    between atoms: _32  and  _33
REMARK   11  A    between atoms: _37  and  ZN_355
REMARK   12  A    between atoms: _38  and  _40
REMARK   13  A    between atoms: _40  and  _41
REMARK   14  A    between atoms: _40  and  _43
REMARK   15  A    between atoms: _43  and  _44
REMARK   16  A    between atoms: _44  and  _46
REMARK   17  A    between atoms: _46  and  ZN_355
REMARK   18  A    between atoms: _47  and  _49
REMARK   19  A    between atoms: _49  and  _50
REMARK   20  A    between atoms: _49  and  _52
REMARK   21  A    between atoms: _52  and  _53
REMARK   22  A    between atoms: _59  and  _61
REMARK   23  A    between atoms: _61  and  _62
REMARK   24  A    between atoms: _61  and  _64
REMARK   25  A    between atoms: _64  and  _65
REMARK   26  A    between atoms: _70  and  _71
REMARK   27  A    between atoms: _74  and  _75
REMARK   28  A    between atoms: _80  and  _82
REMARK   29  A    between atoms: _82  and  _83
REMARK   30  A    between atoms: _82  and  _85
REMARK   31  A    between atoms: _85  and  _86
REMARK   32  A    between atoms: _92  and  _94
REMARK   33  A    between atoms: _94  and  _95
REMARK   34  A    between atoms: _94  and  _97
REMARK   35  A    between atoms: _100  and  _102
REMARK   36  A    between atoms: _102  and  _103
REMARK   37  A    between atoms: _102  and  _105
REMARK   38  A    between atoms: _105  and  _106
REMARK   39  A    between atoms: _109  and  _111
REMARK   40  A    between atoms: _111  and  _112
REMARK   41  A    between atoms: _117  and  _118
REMARK   42  A    between atoms: _117  and  _120
REMARK   43  A    between atoms: _120  and  _121
REMARK   44  A    between atoms: _125  and  ZN_355
REMARK   45  A    between atoms: _126  and  _128
REMARK   46  A    between atoms: _128  and  _129
REMARK   47  A    between atoms: _132  and  _134
REMARK   48  A    between atoms: _134  and  _135
REMARK   49  A    between atoms: _134  and  _137
REMARK   50  A    between atoms: _137  and  _138
REMARK   51  A    between atoms: _143  and  _144
REMARK   52  A    between atoms: _146  and  _148
REMARK   53  A    between atoms: _148  and  _149
REMARK   54  A    between atoms: _153  and  _154
REMARK   55  A    between atoms: _159  and  _161
REMARK   56  A    between atoms: _161  and  _162
REMARK   57  A    between atoms: _161  and  _164
REMARK   58  A    between atoms: _164  and  _165
REMARK   59  A    between atoms: _168  and  _170
REMARK   60  A    between atoms: _170  and  _171
REMARK   61  A    between atoms: _170  and  _173
REMARK   62  A    between atoms: _173  and  _174
REMARK   63  A    between atoms: _179  and  _181
REMARK   64  A    between atoms: _181  and  _182
REMARK   65  A    between atoms: _184  and  _186
REMARK   66  A    between atoms: _186  and  _187
REMARK   67  A    between atoms: _186  and  _189
REMARK   68  A    between atoms: _189  and  _190
REMARK   69  A    between atoms: _193  and  _195
REMARK   70  A    between atoms: _195  and  _196
REMARK   71  A    between atoms: _199  and  _201
REMARK   72  A    between atoms: _201  and  _202
REMARK   73  A    between atoms: _201  and  _204
REMARK   74  A    between atoms: _204  and  _205
REMARK   75  A    between atoms: _206  and  ZN_355
REMARK   76  A    between atoms: _210  and  _212
REMARK   77  A    between atoms: _212  and  _213
REMARK   78  A    between atoms: _212  and  _215
REMARK   79  A    between atoms: _218  and  _220
REMARK   80  A    between atoms: _220  and  _221
REMARK   81  A    between atoms: _220  and  _223
REMARK   82  A    between atoms: _223  and  _224
REMARK   83  A    between atoms: _228  and  ZN_354
REMARK   84  A    between atoms: _229  and  _231
REMARK   85  A    between atoms: _231  and  _232
REMARK   86  A    between atoms: _231  and  _234
REMARK   87  A    between atoms: _234  and  _235
REMARK   88  A    between atoms: _235  and  _236
REMARK   89  A    between atoms: _239  and  _241
REMARK   90  A    between atoms: _241  and  _242
REMARK   91  A    between atoms: _241  and  _244
REMARK   92  A    between atoms: _244  and  _245
REMARK   93  A    between atoms: _248  and  _250
REMARK   94  A    between atoms: _250  and  _251
REMARK   95  A    between atoms: _250  and  _253
REMARK   96  A    between atoms: _253  and  _254
REMARK   97  A    between atoms: _258  and  ZN_354
REMARK   98  A    between atoms: _259  and  _261
REMARK   99  A    between atoms: _261  and  _262
REMARK  100  A    between atoms: _261  and  _264
REMARK  101  A    between atoms: _264  and  _265
REMARK  102  A    between atoms: _267  and  _269
REMARK  103  A    between atoms: _269  and  _270
REMARK  104  A    between atoms: _269  and  _272
REMARK  105  A    between atoms: _272  and  _273
REMARK  106  A    between atoms: _276  and  _278
REMARK  107  A    between atoms: _278  and  _279
REMARK  108  A    between atoms: _278  and  _281
REMARK  109  A    between atoms: _281  and  _282
REMARK  110  A    between atoms: _288  and  _290
REMARK  111  A    between atoms: _290  and  _291
REMARK  112  A    between atoms: _290  and  _293
REMARK  113  A    between atoms: _293  and  _294
REMARK  114  A    between atoms: _298  and  ZN_354
REMARK  115  A    between atoms: _299  and  _301
REMARK  116  A    between atoms: _301  and  _302
REMARK  117  A    between atoms: _301  and  _304
REMARK  118  A    between atoms: _304  and  _305
REMARK  119  A    between atoms: _305  and  _306
REMARK  120  A    between atoms: _308  and  _310
REMARK  121  A    between atoms: _310  and  _311
REMARK  122  A    between atoms: _310  and  _313
REMARK  123  A    between atoms: _313  and  _314
REMARK  124  A    between atoms: _319  and  _320
REMARK  125  A    between atoms: _323  and  _324
REMARK  126  A    between atoms: _329  and  _331
REMARK  127  A    between atoms: _331  and  _332
REMARK  128  A    between atoms: _331  and  _334
REMARK  129  A    between atoms: _334  and  _335
REMARK  130  A    between atoms: _340  and  _341
REMARK  131  A    between atoms: _343  and  _345
REMARK  132  A    between atoms: _345  and  _346
REMARK  133  A    between atoms: _345  and  _348
REMARK  134  A    between atoms: _348  and  _349
REMARK                            x       y       z     vdW  Elec       q    Type
REMARK                         _______ _______ _______ _____ _____    ______ ____
ROOT
ATOM      1 ZN   UNK A   3      32.990  49.366  51.542  0.00  0.00    +0.000 Zn
ENDROOT
BRANCH   1   5
ATOM      2  C   UNK A   1      37.152  48.735  52.081  0.00  0.00    +0.000 A 
ATOM      3  N   UNK A   1      36.788  49.430  53.190  0.00  0.00    +0.000 NA
ATOM      4  C   UNK A   1      35.496  49.736  53.222  0.00  0.00    +0.000 A 
ATOM      5  N   UNK A   1      34.969  49.330  52.026  0.00  0.00    +0.000 N 
ATOM      6  C   UNK A   1      36.044  48.751  51.328  0.00  0.00    +0.000 A 
BRANCH   2   7
ATOM      7  C   UNK A   1      38.512  48.142  51.816  0.00  0.00    +0.000 C 
BRANCH   7   8
ATOM      8  C   UNK A   1      38.767  46.621  52.141  0.00  0.00    +0.000 C 
BRANCH   8   9
ATOM      9  C   UNK A   1      37.671  45.775  51.515  0.00  0.00    +0.000 C 
ATOM     10  O   UNK A   1      36.726  45.266  52.217  0.00  0.00    +0.000 OA
ATOM     11  N   GLU A   2      37.730  45.557  50.205  0.00  0.00    +0.000 N 
ATOM     12  H   GLU A   2      38.502  45.993  49.661  0.00  0.00    +0.000 HD
BRANCH  11  13
ATOM     13  CA  GLU A   2      36.732  44.711  49.481  0.00  0.00    +0.000 C 
BRANCH  13  14
ATOM     14  C   GLU A   2      36.690  43.286  49.988  0.00  0.00    +0.000 C 
ATOM     15  N   UNK A   3      37.764  42.648  50.341  0.00  0.00    +0.000 N 
ATOM     16  H   UNK A   3      38.677  43.138  50.249  0.00  0.00    +0.000 HD
ATOM     17  O   GLU A   2      35.550  42.720  49.973  0.00  0.00    +0.000 OA
BRANCH  15  18
ATOM     18  C   UNK A   3      37.765  41.240  50.876  0.00  0.00    +0.000 C 
BRANCH  18  19
ATOM     19  C   UNK A   3      39.209  40.627  50.827  0.00  0.00    +0.000 C 
ATOM     20  C   UNK A   3      39.310  39.271  51.616  0.00  0.00    +0.000 C 
BRANCH  19  21
ATOM     21  C   UNK A   3      39.503  40.368  49.349  0.00  0.00    +0.000 C 
ATOM     22  C   UNK A   3      40.930  40.215  48.880  0.00  0.00    +0.000 C 
ENDBRANCH  19  21
ENDBRANCH  18  19
BRANCH  18  23
ATOM     23  C   UNK A   3      37.066  41.143  52.225  0.00  0.00    +0.000 C 
ATOM     24  O   UNK A   3      36.467  40.091  52.505  0.00  0.00    +0.000 OA
ENDBRANCH  18  23
ENDBRANCH  15  18
ENDBRANCH  13  14
BRANCH  13  25
ATOM     25  CB  GLU A   2      37.032  44.761  47.962  0.00  0.00    +0.000 C 
BRANCH  25  26
ATOM     26  CG  GLU A   2      36.875  46.204  47.355  0.00  0.00    +0.000 C 
BRANCH  26  27
ATOM     27  CD  GLU A   2      35.427  46.635  47.410  0.00  0.00    +0.000 C 
ATOM     28  OE2 GLU A   2      35.101  47.787  47.731  0.00  0.00    +0.000 OA
ATOM     29  OE1 GLU A   2      34.543  45.844  47.112  0.00  0.00    +0.000 OA
ENDBRANCH  26  27
ENDBRANCH  25  26
ENDBRANCH  13  25
ENDBRANCH  11  13
ENDBRANCH   8   9
BRANCH   8  30
ATOM     30  N   UNK A   1      40.113  46.173  51.738  0.00  0.00    +0.000 NA
ATOM     31  H   UNK A   1      40.669  46.828  51.152  0.00  0.00    +0.000 HD
ENDBRANCH   8  30
ENDBRANCH   7   8
ENDBRANCH   2   7
ENDBRANCH   1   5
BRANCH   1  32
ATOM     32  N   UNK A   3      31.840  50.276  52.847  0.00  0.00    +0.000 N 
ATOM     33  C   UNK A   3      31.989  50.106  54.210  0.00  0.00    +0.000 A 
ATOM     34  C   UNK A   3      30.919  50.683  54.825  0.00  0.00    +0.000 A 
ATOM     35  N   UNK A   3      30.168  51.186  53.791  0.00  0.00    +0.000 NA
ATOM     36  C   UNK A   3      30.801  51.037  52.660  0.00  0.00    +0.000 A 
BRANCH  34  37
ATOM     37  C   UNK A   3      30.554  50.791  56.286  0.00  0.00    +0.000 C 
BRANCH  37  38
ATOM     38  C   UNK A   3      30.874  49.570  57.163  0.00  0.00    +0.000 C 
BRANCH  38  39
ATOM     39  N   UNK A   3      30.097  48.373  56.729  0.00  0.00    +0.000 N 
ATOM     40  C   GLU A   2      30.619  47.158  56.793  0.00  0.00    +0.000 C 
ATOM     41  O   GLU A   2      31.792  46.976  57.228  0.00  0.00    +0.000 OA
ATOM     42  H   UNK A   3      29.129  48.495  56.370  0.00  0.00    +0.000 HD
BRANCH  40  43
ATOM     43  CA  GLU A   2      29.796  45.985  56.286  0.00  0.00    +0.000 C 
BRANCH  43  44
ATOM     44  N   GLU A   2      30.364  44.771  56.896  0.00  0.00    +0.000 N 
ATOM     45  H   GLU A   2      30.096  44.571  57.881  0.00  0.00    +0.000 HD
ATOM     46  C   UNK A   1      31.179  43.913  56.316  0.00  0.00    +0.000 C 
ATOM     47  O   UNK A   1      31.456  43.911  55.090  0.00  0.00    +0.000 OA
BRANCH  46  48
ATOM     48  C   UNK A   1      31.728  42.781  57.198  0.00  0.00    +0.000 C 
BRANCH  48  49
ATOM     49  N   UNK A   1      31.755  41.490  56.513  0.00  0.00    +0.000 NA
ATOM     50  H   UNK A   1      32.605  41.266  55.957  0.00  0.00    +0.000 HD
ENDBRANCH  48  49
BRANCH  48  51
ATOM     51  C   UNK A   1      33.125  43.138  57.751  0.00  0.00    +0.000 C 
BRANCH  51  52
ATOM     52  C   UNK A   1      33.779  42.300  58.846  0.00  0.00    +0.000 C 
ATOM     53  C   UNK A   1      32.930  42.176  60.090  0.00  0.00    +0.000 C 
ATOM     54  C   UNK A   1      35.160  42.810  59.233  0.00  0.00    +0.000 C 
ENDBRANCH  51  52
ENDBRANCH  48  51
ENDBRANCH  46  48
ENDBRANCH  43  44
BRANCH  43  55
ATOM     55  CB  GLU A   2      28.264  46.105  56.387  0.00  0.00    +0.000 C 
BRANCH  55  56
ATOM     56  CG  GLU A   2      27.704  47.140  55.461  0.00  0.00    +0.000 A 
ATOM     57  CD2 GLU A   2      26.952  48.245  55.878  0.00  0.00    +0.000 A 
ATOM     58  CE2 GLU A   2      26.509  49.211  54.914  0.00  0.00    +0.000 A 
ATOM     59  CZ  GLU A   2      26.823  49.033  53.552  0.00  0.00    +0.000 A 
ATOM     60  CE1 GLU A   2      27.541  47.888  53.136  0.00  0.00    +0.000 A 
ATOM     61  CD1 GLU A   2      27.946  46.951  54.072  0.00  0.00    +0.000 A 
ENDBRANCH  55  56
ENDBRANCH  43  55
ENDBRANCH  40  43
ENDBRANCH  38  39
BRANCH  38  62
ATOM     62  C   UNK A   3      30.810  49.884  58.654  0.00  0.00    +0.000 C 
ATOM     63  O   UNK A   3      29.837  49.655  59.394  0.00  0.00    +0.000 OA
ENDBRANCH  38  62
ENDBRANCH  37  38
ENDBRANCH  34  37
ENDBRANCH   1  32
BRANCH   1  64
ATOM     64  N   UNK A   3      32.488  47.303  51.846  0.00  0.00    +0.000 N 
ATOM     65  C   UNK A   3      31.829  46.821  52.927  0.00  0.00    +0.000 A 
ATOM     66  N   UNK A   3      31.800  45.508  52.848  0.00  0.00    +0.000 NA
ATOM     67  C   UNK A   3      32.537  45.115  51.748  0.00  0.00    +0.000 A 
ATOM     68  C   UNK A   3      32.911  46.242  51.102  0.00  0.00    +0.000 A 
BRANCH  67  69
ATOM     69  C   UNK A   3      32.553  43.684  51.294  0.00  0.00    +0.000 C 
BRANCH  69  70
ATOM     70  C   UNK A   3      33.021  42.711  52.403  0.00  0.00    +0.000 C 
BRANCH  70  71
ATOM     71  C   UNK A   3      32.740  41.265  52.016  0.00  0.00    +0.000 C 
ATOM     72  O   UNK A   3      31.685  40.744  52.304  0.00  0.00    +0.000 OA
ATOM     73  N   GLU A   2      33.606  40.624  51.217  0.00  0.00    +0.000 N 
ATOM     74  H   GLU A   2      34.410  41.190  50.878  0.00  0.00    +0.000 HD
BRANCH  73  75
ATOM     75  CA  GLU A   2      33.572  39.259  50.766  0.00  0.00    +0.000 C 
BRANCH  75  76
ATOM     76  CB  GLU A   2      33.562  38.252  51.941  0.00  0.00    +0.000 C 
ATOM     77  O   GLU A   2      33.058  37.145  51.724  0.00  0.00    +0.000 OA
ENDBRANCH  75  76
BRANCH  75  78
ATOM     78  C   GLU A   2      34.708  38.822  49.845  0.00  0.00    +0.000 C 
BRANCH  78  79
ATOM     79  O   GLU A   2      34.676  39.474  48.615  0.00  0.00    +0.000 OA
ATOM     80  H   GLU A   2      33.820  39.276  48.160  0.00  0.00    +0.000 HD
ENDBRANCH  78  79
ENDBRANCH  75  78
ENDBRANCH  73  75
ENDBRANCH  70  71
BRANCH  70  81
ATOM     81  N   UNK A   3      34.401  42.908  52.885  0.00  0.00    +0.000 NA
ATOM     82  H   UNK A   1      35.005  43.603  52.401  0.00  0.00    +0.000 HD
ENDBRANCH  70  81
ENDBRANCH  69  70
ENDBRANCH  67  69
ENDBRANCH   1  64
TORSDOF 36
REMARK  Name = ../refined-set-2016/1usn/1usn_pocket.pdb
REMARK  134 active torsions:
REMARK  status: ('A' for Active; 'I' for Inactive)
REMARK    1  A    between atoms: _1  and  _3
REMARK    2  A    between atoms: _3  and  _4
REMARK    3  A    between atoms: _3  and  _6
REMARK    4  A    between atoms: _6  and  _7
REMARK    5  A    between atoms: _14  and  _15
REMARK    6  A    between atoms: _21  and  _22
REMARK    7  A    between atoms: _27  and  _29
REMARK    8  A    between atoms: _29  and  _30
REMARK    9  A    between atoms: _29  and  _32
REMARK   10  A    between atoms: _32  and  _33
REMARK   11  A    between atoms: _37  and  ZN_355
REMARK   12  A    between atoms: _38  and  _40
REMARK   13  A    between atoms: _40  and  _41
REMARK   14  A    between atoms: _40  and  _43
REMARK   15  A    between atoms: _43  and  _44
REMARK   16  A    between atoms: _44  and  _46
REMARK   17  A    between atoms: _46  and  ZN_355
REMARK   18  A    between atoms: _47  and  _49
REMARK   19  A    between atoms: _49  and  _50
REMARK   20  A    between atoms: _49  and  _52
REMARK   21  A    between atoms: _52  and  _53
REMARK   22  A    between atoms: _59  and  _61
REMARK   23  A    between atoms: _61  and  _62
REMARK   24  A    between atoms: _61  and  _64
REMARK   25  A    between atoms: _64  and  _65
REMARK   26  A    between atoms: _70  and  _71
REMARK   27  A    between atoms: _74  and  _75
REMARK   28  A    between atoms: _80  and  _82
REMARK   29  A    between atoms: _82  and  _83
REMARK   30  A    between atoms: _82  and  _85
REMARK   31  A    between atoms: _85  and  _86
REMARK   32  A    between atoms: _92  and  _94
REMARK   33  A    between atoms: _94  and  _95
REMARK   34  A    between atoms: _94  and  _97
REMARK   35  A    between atoms: _100  and  _102
REMARK   36  A    between atoms: _102  and  _103
REMARK   37  A    between atoms: _102  and  _105
REMARK   38  A    between atoms: _105  and  _106
REMARK   39  A    between atoms: _109  and  _111
REMARK   40  A    between atoms: _111  and  _112
REMARK   41  A    between atoms: _117  and  _118
REMARK   42  A    between atoms: _117  and  _120
REMARK   43  A    between atoms: _120  and  _121
REMARK   44  A    between atoms: _125  and  ZN_355
REMARK   45  A    between atoms: _126  and  _128
REMARK   46  A    between atoms: _128  and  _129
REMARK   47  A    between atoms: _132  and  _134
REMARK   48  A    between atoms: _134  and  _135
REMARK   49  A    between atoms: _134  and  _137
REMARK   50  A    between atoms: _137  and  _138
REMARK   51  A    between atoms: _143  and  _144
REMARK   52  A    between atoms: _146  and  _148
REMARK   53  A    between atoms: _148  and  _149
REMARK   54  A    between atoms: _153  and  _154
REMARK   55  A    between atoms: _159  and  _161
REMARK   56  A    between atoms: _161  and  _162
REMARK   57  A    between atoms: _161  and  _164
REMARK   58  A    between atoms: _164  and  _165
REMARK   59  A    between atoms: _168  and  _170
REMARK   60  A    between atoms: _170  and  _171
REMARK   61  A    between atoms: _170  and  _173
REMARK   62  A    between atoms: _173  and  _174
REMARK   63  A    between atoms: _179  and  _181
REMARK   64  A    between atoms: _181  and  _182
REMARK   65  A    between atoms: _184  and  _186
REMARK   66  A    between atoms: _186  and  _187
REMARK   67  A    between atoms: _186  and  _189
REMARK   68  A    between atoms: _189  and  _190
REMARK   69  A    between atoms: _193  and  _195
REMARK   70  A    between atoms: _195  and  _196
REMARK   71  A    between atoms: _199  and  _201
REMARK   72  A    between atoms: _201  and  _202
REMARK   73  A    between atoms: _201  and  _204
REMARK   74  A    between atoms: _204  and  _205
REMARK   75  A    between atoms: _206  and  ZN_355
REMARK   76  A    between atoms: _210  and  _212
REMARK   77  A    between atoms: _212  and  _213
REMARK   78  A    between atoms: _212  and  _215
REMARK   79  A    between atoms: _218  and  _220
REMARK   80  A    between atoms: _220  and  _221
REMARK   81  A    between atoms: _220  and  _223
REMARK   82  A    between atoms: _223  and  _224
REMARK   83  A    between atoms: _228  and  ZN_354
REMARK   84  A    between atoms: _229  and  _231
REMARK   85  A    between atoms: _231  and  _232
REMARK   86  A    between atoms: _231  and  _234
REMARK   87  A    between atoms: _234  and  _235
REMARK   88  A    between atoms: _235  and  _236
REMARK   89  A    between atoms: _239  and  _241
REMARK   90  A    between atoms: _241  and  _242
REMARK   91  A    between atoms: _241  and  _244
REMARK   92  A    between atoms: _244  and  _245
REMARK   93  A    between atoms: _248  and  _250
REMARK   94  A    between atoms: _250  and  _251
REMARK   95  A    between atoms: _250  and  _253
REMARK   96  A    between atoms: _253  and  _254
REMARK   97  A    between atoms: _258  and  ZN_354
REMARK   98  A    between atoms: _259  and  _261
REMARK   99  A    between atoms: _261  and  _262
REMARK  100  A    between atoms: _261  and  _264
REMARK  101  A    between atoms: _264  and  _265
REMARK  102  A    between atoms: _267  and  _269
REMARK  103  A    between atoms: _269  and  _270
REMARK  104  A    between atoms: _269  and  _272
REMARK  105  A    between atoms: _272  and  _273
REMARK  106  A    between atoms: _276  and  _278
REMARK  107  A    between atoms: _278  and  _279
REMARK  108  A    between atoms: _278  and  _281
REMARK  109  A    between atoms: _281  and  _282
REMARK  110  A    between atoms: _288  and  _290
REMARK  111  A    between atoms: _290  and  _291
REMARK  112  A    between atoms: _290  and  _293
REMARK  113  A    between atoms: _293  and  _294
REMARK  114  A    between atoms: _298  and  ZN_354
REMARK  115  A    between atoms: _299  and  _301
REMARK  116  A    between atoms: _301  and  _302
REMARK  117  A    between atoms: _301  and  _304
REMARK  118  A    between atoms: _304  and  _305
REMARK  119  A    between atoms: _305  and  _306
REMARK  120  A    between atoms: _308  and  _310
REMARK  121  A    between atoms: _310  and  _311
REMARK  122  A    between atoms: _310  and  _313
REMARK  123  A    between atoms: _313  and  _314
REMARK  124  A    between atoms: _319  and  _320
REMARK  125  A    between atoms: _323  and  _324
REMARK  126  A    between atoms: _329  and  _331
REMARK  127  A    between atoms: _331  and  _332
REMARK  128  A    between atoms: _331  and  _334
REMARK  129  A    between atoms: _334  and  _335
REMARK  130  A    between atoms: _340  and  _341
REMARK  131  A    between atoms: _343  and  _345
REMARK  132  A    between atoms: _345  and  _346
REMARK  133  A    between atoms: _345  and  _348
REMARK  134  A    between atoms: _348  and  _349
REMARK                            x       y       z     vdW  Elec       q    Type
REMARK                         _______ _______ _______ _____ _____    ______ ____
ROOT
ATOM      1  CA  TYR A   2      35.224  53.034  57.648  0.00  0.00    +0.153 C 
ENDROOT
BRANCH   1   2
ATOM      2  C   TYR A   2      35.205  53.438  56.178  0.00  0.00    +0.244 C 
ATOM      3  N   PRO A   3      34.118  54.059  55.692  0.00  0.00    -0.273 N 
ATOM      4  CD  PRO A   3      32.938  54.407  56.485  0.00  0.00    +0.094 C 
ATOM      5  CG  PRO A   3      31.872  54.700  55.439  0.00  0.00    +0.024 C 
ATOM      6  CB  PRO A   3      32.548  54.863  54.133  0.00  0.00    +0.030 C 
ATOM      7  CA  PRO A   3      33.973  54.382  54.291  0.00  0.00    +0.140 C 
ATOM      8  O   TYR A   2      36.177  53.185  55.436  0.00  0.00    -0.273 OA
BRANCH   7   9
ATOM      9  C   PRO A   3      35.021  55.224  53.619  0.00  0.00    +0.227 C 
ATOM     10  O   PRO A   3      35.317  54.998  52.421  0.00  0.00    -0.286 OA
ENDBRANCH   7   9
ENDBRANCH   1   2
BRANCH   1  12
ATOM     11  C   MET A   1      35.337  50.620  57.207  0.00  0.00    +0.238 C 
ATOM     12  N   TYR A   2      35.922  51.679  57.680  0.00  0.00    -0.297 N 
ATOM     13  H   TYR A   2      36.877  51.602  58.085  0.00  0.00    +0.150 HD
ATOM     14  O   MET A   1      34.113  50.626  56.888  0.00  0.00    -0.274 OA
BRANCH  11  15
ATOM     15  CA  MET A   1      36.054  49.263  57.116  0.00  0.00    +0.146 C 
BRANCH  15  16
ATOM     16  N   MET A   1      37.428  49.338  57.632  0.00  0.00    -0.238 NA
ATOM     17  H   MET A   1      37.580  49.197  58.651  0.00  0.00    +0.142 HD
ENDBRANCH  15  16
BRANCH  15  18
ATOM     18  CB  MET A   1      35.218  48.111  57.601  0.00  0.00    +0.038 C 
BRANCH  18  19
ATOM     19  CG  MET A   1      35.764  46.722  57.489  0.00  0.00    +0.060 C 
BRANCH  19  20
ATOM     20  SD  MET A   1      36.299  46.299  55.763  0.00  0.00    -0.139 S 
ATOM     21  CE  MET A   1      34.783  46.258  54.899  0.00  0.00    +0.069 C 
ENDBRANCH  19  20
ENDBRANCH  18  19
ENDBRANCH  15  18
ENDBRANCH  11  15
ENDBRANCH   1  12
BRANCH   1  22
ATOM     22  CB  TYR A   2      36.178  53.954  58.473  0.00  0.00    +0.055 C 
BRANCH  22  23
ATOM     23  CG  TYR A   2      35.645  55.366  58.616  0.00  0.00    -0.020 A 
ATOM     24  CD2 TYR A   2      34.553  55.615  59.430  0.00  0.00    -0.001 A 
ATOM     25  CE2 TYR A   2      34.026  56.911  59.609  0.00  0.00    +0.036 A 
ATOM     26  CZ  TYR A   2      34.709  57.967  58.990  0.00  0.00    +0.134 A 
ATOM     27  CE1 TYR A   2      35.853  57.742  58.241  0.00  0.00    +0.036 A 
ATOM     28  CD1 TYR A   2      36.313  56.416  58.064  0.00  0.00    -0.001 A 
BRANCH  26  29
ATOM     29  OH  TYR A   2      34.331  59.267  59.220  0.00  0.00    -0.506 OA
ATOM     30  HH  TYR A   2      33.504  59.278  59.764  0.00  0.00    +0.292 HD
ENDBRANCH  26  29
ENDBRANCH  22  23
ENDBRANCH   1  22
TORSDOF 11
REMARK  Name = ../refined-set-2016/1usn/1usn_pocket.pdb
REMARK  134 active torsions:
REMARK  status: ('A' for Active; 'I' for Inactive)
REMARK    1  A    between atoms: _1  and  _3
REMARK    2  A    between atoms: _3  and  _4
REMARK    3  A    between atoms: _3  and  _6
REMARK    4  A    between atoms: _6  and  _7
REMARK    5  A    between atoms: _14  and  _15
REMARK    6  A    between atoms: _21  and  _22
REMARK    7  A    between atoms: _27  and  _29
REMARK    8  A    between atoms: _29  and  _30
REMARK    9  A    between atoms: _29  and  _32
REMARK   10  A    between atoms: _32  and  _33
REMARK   11  A    between atoms: _37  and  ZN_355
REMARK   12  A    between atoms: _38  and  _40
REMARK   13  A    between atoms: _40  and  _41
REMARK   14  A    between atoms: _40  and  _43
REMARK   15  A    between atoms: _43  and  _44
REMARK   16  A    between atoms: _44  and  _46
REMARK   17  A    between atoms: _46  and  ZN_355
REMARK   18  A    between atoms: _47  and  _49
REMARK   19  A    between atoms: _49  and  _50
REMARK   20  A    between atoms: _49  and  _52
REMARK   21  A    between atoms: _52  and  _53
REMARK   22  A    between atoms: _59  and  _61
REMARK   23  A    between atoms: _61  and  _62
REMARK   24  A    between atoms: _61  and  _64
REMARK   25  A    between atoms: _64  and  _65
REMARK   26  A    between atoms: _70  and  _71
REMARK   27  A    between atoms: _74  and  _75
REMARK   28  A    between atoms: _80  and  _82
REMARK   29  A    between atoms: _82  and  _83
REMARK   30  A    between atoms: _82  and  _85
REMARK   31  A    between atoms: _85  and  _86
REMARK   32  A    between atoms: _92  and  _94
REMARK   33  A    between atoms: _94  and  _95
REMARK   34  A    between atoms: _94  and  _97
REMARK   35  A    between atoms: _100  and  _102
REMARK   36  A    between atoms: _102  and  _103
REMARK   37  A    between atoms: _102  and  _105
REMARK   38  A    between atoms: _105  and  _106
REMARK   39  A    between atoms: _109  and  _111
REMARK   40  A    between atoms: _111  and  _112
REMARK   41  A    between atoms: _117  and  _118
REMARK   42  A    between atoms: _117  and  _120
REMARK   43  A    between atoms: _120  and  _121
REMARK   44  A    between atoms: _125  and  ZN_355
REMARK   45  A    between atoms: _126  and  _128
REMARK   46  A    between atoms: _128  and  _129
REMARK   47  A    between atoms: _132  and  _134
REMARK   48  A    between atoms: _134  and  _135
REMARK   49  A    between atoms: _134  and  _137
REMARK   50  A    between atoms: _137  and  _138
REMARK   51  A    between atoms: _143  and  _144
REMARK   52  A    between atoms: _146  and  _148
REMARK   53  A    between atoms: _148  and  _149
REMARK   54  A    between atoms: _153  and  _154
REMARK   55  A    between atoms: _159  and  _161
REMARK   56  A    between atoms: _161  and  _162
REMARK   57  A    between atoms: _161  and  _164
REMARK   58  A    between atoms: _164  and  _165
REMARK   59  A    between atoms: _168  and  _170
REMARK   60  A    between atoms: _170  and  _171
REMARK   61  A    between atoms: _170  and  _173
REMARK   62  A    between atoms: _173  and  _174
REMARK   63  A    between atoms: _179  and  _181
REMARK   64  A    between atoms: _181  and  _182
REMARK   65  A    between atoms: _184  and  _186
REMARK   66  A    between atoms: _186  and  _187
REMARK   67  A    between atoms: _186  and  _189
REMARK   68  A    between atoms: _189  and  _190
REMARK   69  A    between atoms: _193  and  _195
REMARK   70  A    between atoms: _195  and  _196
REMARK   71  A    between atoms: _199  and  _201
REMARK   72  A    between atoms: _201  and  _202
REMARK   73  A    between atoms: _201  and  _204
REMARK   74  A    between atoms: _204  and  _205
REMARK   75  A    between atoms: _206  and  ZN_355
REMARK   76  A    between atoms: _210  and  _212
REMARK   77  A    between atoms: _212  and  _213
REMARK   78  A    between atoms: _212  and  _215
REMARK   79  A    between atoms: _218  and  _220
REMARK   80  A    between atoms: _220  and  _221
REMARK   81  A    between atoms: _220  and  _223
REMARK   82  A    between atoms: _223  and  _224
REMARK   83  A    between atoms: _228  and  ZN_354
REMARK   84  A    between atoms: _229  and  _231
REMARK   85  A    between atoms: _231  and  _232
REMARK   86  A    between atoms: _231  and  _234
REMARK   87  A    between atoms: _234  and  _235
REMARK   88  A    between atoms: _235  and  _236
REMARK   89  A    between atoms: _239  and  _241
REMARK   90  A    between atoms: _241  and  _242
REMARK   91  A    between atoms: _241  and  _244
REMARK   92  A    between atoms: _244  and  _245
REMARK   93  A    between atoms: _248  and  _250
REMARK   94  A    between atoms: _250  and  _251
REMARK   95  A    between atoms: _250  and  _253
REMARK   96  A    between atoms: _253  and  _254
REMARK   97  A    between atoms: _258  and  ZN_354
REMARK   98  A    between atoms: _259  and  _261
REMARK   99  A    between atoms: _261  and  _262
REMARK  100  A    between atoms: _261  and  _264
REMARK  101  A    between atoms: _264  and  _265
REMARK  102  A    between atoms: _267  and  _269
REMARK  103  A    between atoms: _269  and  _270
REMARK  104  A    between atoms: _269  and  _272
REMARK  105  A    between atoms: _272  and  _273
REMARK  106  A    between atoms: _276  and  _278
REMARK  107  A    between atoms: _278  and  _279
REMARK  108  A    between atoms: _278  and  _281
REMARK  109  A    between atoms: _281  and  _282
REMARK  110  A    between atoms: _288  and  _290
REMARK  111  A    between atoms: _290  and  _291
REMARK  112  A    between atoms: _290  and  _293
REMARK  113  A    between atoms: _293  and  _294
REMARK  114  A    between atoms: _298  and  ZN_354
REMARK  115  A    between atoms: _299  and  _301
REMARK  116  A    between atoms: _301  and  _302
REMARK  117  A    between atoms: _301  and  _304
REMARK  118  A    between atoms: _304  and  _305
REMARK  119  A    between atoms: _305  and  _306
REMARK  120  A    between atoms: _308  and  _310
REMARK  121  A    between atoms: _310  and  _311
REMARK  122  A    between atoms: _310  and  _313
REMARK  123  A    between atoms: _313  and  _314
REMARK  124  A    between atoms: _319  and  _320
REMARK  125  A    between atoms: _323  and  _324
REMARK  126  A    between atoms: _329  and  _331
REMARK  127  A    between atoms: _331  and  _332
REMARK  128  A    between atoms: _331  and  _334
REMARK  129  A    between atoms: _334  and  _335
REMARK  130  A    between atoms: _340  and  _341
REMARK  131  A    between atoms: _343  and  _345
REMARK  132  A    between atoms: _345  and  _346
REMARK  133  A    between atoms: _345  and  _348
REMARK  134  A    between atoms: _348  and  _349
REMARK                            x       y       z     vdW  Elec       q    Type
REMARK                         _______ _______ _______ _____ _____    ______ ____
ROOT
ATOM      1  C   TYR A   1      40.650  54.844  53.394  0.00  0.00    +0.239 C 
ATOM      2  O   TYR A   1      41.883  54.893  53.619  0.00  0.00    -0.274 OA
ATOM      3  N   HIS A   2      40.221  54.951  52.151  0.00  0.00    -0.298 N 
ATOM      4  H   HIS A   2      39.204  54.848  51.961  0.00  0.00    +0.150 HD
ENDROOT
BRANCH   1   5
ATOM      5  CA  TYR A   1      39.644  54.525  54.481  0.00  0.00    +0.149 C 
BRANCH   5   6
ATOM      6  N   TYR A   1      38.347  55.159  54.265  0.00  0.00    -0.238 NA
ATOM      7  H   TYR A   1      37.502  54.554  54.313  0.00  0.00    +0.142 HD
ENDBRANCH   5   6
BRANCH   5   8
ATOM      8  CB  TYR A   1      39.466  52.942  54.550  0.00  0.00    +0.053 C 
BRANCH   8   9
ATOM      9  CG  TYR A   1      39.182  52.346  53.190  0.00  0.00    -0.020 A 
ATOM     10  CD2 TYR A   1      37.901  52.394  52.644  0.00  0.00    -0.001 A 
ATOM     11  CE2 TYR A   1      37.651  52.050  51.307  0.00  0.00    +0.036 A 
ATOM     12  CZ  TYR A   1      38.673  51.462  50.572  0.00  0.00    +0.134 A 
ATOM     13  CE1 TYR A   1      39.933  51.342  51.096  0.00  0.00    +0.036 A 
ATOM     14  CD1 TYR A   1      40.187  51.806  52.394  0.00  0.00    -0.001 A 
BRANCH  12  15
ATOM     15  OH  TYR A   1      38.399  51.156  49.285  0.00  0.00    -0.506 OA
ATOM     16  HH  TYR A   1      37.437  51.311  49.108  0.00  0.00    +0.292 HD
ENDBRANCH  12  15
ENDBRANCH   8   9
ENDBRANCH   5   8
ENDBRANCH   1   5
BRANCH   3  17
ATOM     17  CA  HIS A   2      41.136  55.212  51.017  0.00  0.00    +0.143 C 
BRANCH  17  18
ATOM     18  C   HIS A   2      41.849  56.544  51.087  0.00  0.00    +0.227 C 
ATOM     19  O   HIS A   2      42.928  56.615  50.473  0.00  0.00    -0.286 OA
ENDBRANCH  17  18
BRANCH  17  20
ATOM     20  CB  HIS A   2      40.427  55.083  49.668  0.00  0.00    +0.075 C 
BRANCH  20  21
ATOM     21  CG  HIS A   2      39.093  55.774  49.609  0.00  0.00    +0.082 A 
ATOM     22  CD2 HIS A   2      37.865  55.221  49.746  0.00  0.00    +0.115 A 
ATOM     23  NE2 HIS A   2      36.927  56.214  49.604  0.00  0.00    -0.221 NA
ATOM     24  CE1 HIS A   2      37.559  57.347  49.384  0.00  0.00    +0.199 A 
ATOM     25  ND1 HIS A   2      38.873  57.113  49.367  0.00  0.00    -0.227 NA
ENDBRANCH  20  21
ENDBRANCH  17  20
ENDBRANCH   3  17
TORSDOF 9
REMARK  Name = ../refined-set-2016/1usn/1usn_pocket.pdb
REMARK  134 active torsions:
REMARK  status: ('A' for Active; 'I' for Inactive)
REMARK    1  A    between atoms: _1  and  _3
REMARK    2  A    between atoms: _3  and  _4
REMARK    3  A    between atoms: _3  and  _6
REMARK    4  A    between atoms: _6  and  _7
REMARK    5  A    between atoms: _14  and  _15
REMARK    6  A    between atoms: _21  and  _22
REMARK    7  A    between atoms: _27  and  _29
REMARK    8  A    between atoms: _29  and  _30
REMARK    9  A    between atoms: _29  and  _32
REMARK   10  A    between atoms: _32  and  _33
REMARK   11  A    between atoms: _37  and  ZN_355
REMARK   12  A    between atoms: _38  and  _40
REMARK   13  A    between atoms: _40  and  _41
REMARK   14  A    between atoms: _40  and  _43
REMARK   15  A    between atoms: _43  and  _44
REMARK   16  A    between atoms: _44  and  _46
REMARK   17  A    between atoms: _46  and  ZN_355
REMARK   18  A    between atoms: _47  and  _49
REMARK   19  A    between atoms: _49  and  _50
REMARK   20  A    between atoms: _49  and  _52
REMARK   21  A    between atoms: _52  and  _53
REMARK   22  A    between atoms: _59  and  _61
REMARK   23  A    between atoms: _61  and  _62
REMARK   24  A    between atoms: _61  and  _64
REMARK   25  A    between atoms: _64  and  _65
REMARK   26  A    between atoms: _70  and  _71
REMARK   27  A    between atoms: _74  and  _75
REMARK   28  A    between atoms: _80  and  _82
REMARK   29  A    between atoms: _82  and  _83
REMARK   30  A    between atoms: _82  and  _85
REMARK   31  A    between atoms: _85  and  _86
REMARK   32  A    between atoms: _92  and  _94
REMARK   33  A    between atoms: _94  and  _95
REMARK   34  A    between atoms: _94  and  _97
REMARK   35  A    between atoms: _100  and  _102
REMARK   36  A    between atoms: _102  and  _103
REMARK   37  A    between atoms: _102  and  _105
REMARK   38  A    between atoms: _105  and  _106
REMARK   39  A    between atoms: _109  and  _111
REMARK   40  A    between atoms: _111  and  _112
REMARK   41  A    between atoms: _117  and  _118
REMARK   42  A    between atoms: _117  and  _120
REMARK   43  A    between atoms: _120  and  _121
REMARK   44  A    between atoms: _125  and  ZN_355
REMARK   45  A    between atoms: _126  and  _128
REMARK   46  A    between atoms: _128  and  _129
REMARK   47  A    between atoms: _132  and  _134
REMARK   48  A    between atoms: _134  and  _135
REMARK   49  A    between atoms: _134  and  _137
REMARK   50  A    between atoms: _137  and  _138
REMARK   51  A    between atoms: _143  and  _144
REMARK   52  A    between atoms: _146  and  _148
REMARK   53  A    between atoms: _148  and  _149
REMARK   54  A    between atoms: _153  and  _154
REMARK   55  A    between atoms: _159  and  _161
REMARK   56  A    between atoms: _161  and  _162
REMARK   57  A    between atoms: _161  and  _164
REMARK   58  A    between atoms: _164  and  _165
REMARK   59  A    between atoms: _168  and  _170
REMARK   60  A    between atoms: _170  and  _171
REMARK   61  A    between atoms: _170  and  _173
REMARK   62  A    between atoms: _173  and  _174
REMARK   63  A    between atoms: _179  and  _181
REMARK   64  A    between atoms: _181  and  _182
REMARK   65  A    between atoms: _184  and  _186
REMARK   66  A    between atoms: _186  and  _187
REMARK   67  A    between atoms: _186  and  _189
REMARK   68  A    between atoms: _189  and  _190
REMARK   69  A    between atoms: _193  and  _195
REMARK   70  A    between atoms: _195  and  _196
REMARK   71  A    between atoms: _199  and  _201
REMARK   72  A    between atoms: _201  and  _202
REMARK   73  A    between atoms: _201  and  _204
REMARK   74  A    between atoms: _204  and  _205
REMARK   75  A    between atoms: _206  and  ZN_355
REMARK   76  A    between atoms: _210  and  _212
REMARK   77  A    between atoms: _212  and  _213
REMARK   78  A    between atoms: _212  and  _215
REMARK   79  A    between atoms: _218  and  _220
REMARK   80  A    between atoms: _220  and  _221
REMARK   81  A    between atoms: _220  and  _223
REMARK   82  A    between atoms: _223  and  _224
REMARK   83  A    between atoms: _228  and  ZN_354
REMARK   84  A    between atoms: _229  and  _231
REMARK   85  A    between atoms: _231  and  _232
REMARK   86  A    between atoms: _231  and  _234
REMARK   87  A    between atoms: _234  and  _235
REMARK   88  A    between atoms: _235  and  _236
REMARK   89  A    between atoms: _239  and  _241
REMARK   90  A    between atoms: _241  and  _242
REMARK   91  A    between atoms: _241  and  _244
REMARK   92  A    between atoms: _244  and  _245
REMARK   93  A    between atoms: _248  and  _250
REMARK   94  A    between atoms: _250  and  _251
REMARK   95  A    between atoms: _250  and  _253
REMARK   96  A    between atoms: _253  and  _254
REMARK   97  A    between atoms: _258  and  ZN_354
REMARK   98  A    between atoms: _259  and  _261
REMARK   99  A    between atoms: _261  and  _262
REMARK  100  A    between atoms: _261  and  _264
REMARK  101  A    between atoms: _264  and  _265
REMARK  102  A    between atoms: _267  and  _269
REMARK  103  A    between atoms: _269  and  _270
REMARK  104  A    between atoms: _269  and  _272
REMARK  105  A    between atoms: _272  and  _273
REMARK  106  A    between atoms: _276  and  _278
REMARK  107  A    between atoms: _278  and  _279
REMARK  108  A    between atoms: _278  and  _281
REMARK  109  A    between atoms: _281  and  _282
REMARK  110  A    between atoms: _288  and  _290
REMARK  111  A    between atoms: _290  and  _291
REMARK  112  A    between atoms: _290  and  _293
REMARK  113  A    between atoms: _293  and  _294
REMARK  114  A    between atoms: _298  and  ZN_354
REMARK  115  A    between atoms: _299  and  _301
REMARK  116  A    between atoms: _301  and  _302
REMARK  117  A    between atoms: _301  and  _304
REMARK  118  A    between atoms: _304  and  _305
REMARK  119  A    between atoms: _305  and  _306
REMARK  120  A    between atoms: _308  and  _310
REMARK  121  A    between atoms: _310  and  _311
REMARK  122  A    between atoms: _310  and  _313
REMARK  123  A    between atoms: _313  and  _314
REMARK  124  A    between atoms: _319  and  _320
REMARK  125  A    between atoms: _323  and  _324
REMARK  126  A    between atoms: _329  and  _331
REMARK  127  A    between atoms: _331  and  _332
REMARK  128  A    between atoms: _331  and  _334
REMARK  129  A    between atoms: _334  and  _335
REMARK  130  A    between atoms: _340  and  _341
REMARK  131  A    between atoms: _343  and  _345
REMARK  132  A    between atoms: _345  and  _346
REMARK  133  A    between atoms: _345  and  _348
REMARK  134  A    between atoms: _348  and  _349
REMARK                            x       y       z     vdW  Elec       q    Type
REMARK                         _______ _______ _______ _____ _____    ______ ____
ROOT
ATOM      1  O   HOH     1      34.112  53.119  50.702  0.00  0.00    +0.000 OA
ENDROOT
TORSDOF 0
REMARK  Name = ../refined-set-2016/1usn/1usn_pocket.pdb
REMARK  134 active torsions:
REMARK  status: ('A' for Active; 'I' for Inactive)
REMARK    1  A    between atoms: _1  and  _3
REMARK    2  A    between atoms: _3  and  _4
REMARK    3  A    between atoms: _3  and  _6
REMARK    4  A    between atoms: _6  and  _7
REMARK    5  A    between atoms: _14  and  _15
REMARK    6  A    between atoms: _21  and  _22
REMARK    7  A    between atoms: _27  and  _29
REMARK    8  A    between atoms: _29  and  _30
REMARK    9  A    between atoms: _29  and  _32
REMARK   10  A    between atoms: _32  and  _33
REMARK   11  A    between atoms: _37  and  ZN_355
REMARK   12  A    between atoms: _38  and  _40
REMARK   13  A    between atoms: _40  and  _41
REMARK   14  A    between atoms: _40  and  _43
REMARK   15  A    between atoms: _43  and  _44
REMARK   16  A    between atoms: _44  and  _46
REMARK   17  A    between atoms: _46  and  ZN_355
REMARK   18  A    between atoms: _47  and  _49
REMARK   19  A    between atoms: _49  and  _50
REMARK   20  A    between atoms: _49  and  _52
REMARK   21  A    between atoms: _52  and  _53
REMARK   22  A    between atoms: _59  and  _61
REMARK   23  A    between atoms: _61  and  _62
REMARK   24  A    between atoms: _61  and  _64
REMARK   25  A    between atoms: _64  and  _65
REMARK   26  A    between atoms: _70  and  _71
REMARK   27  A    between atoms: _74  and  _75
REMARK   28  A    between atoms: _80  and  _82
REMARK   29  A    between atoms: _82  and  _83
REMARK   30  A    between atoms: _82  and  _85
REMARK   31  A    between atoms: _85  and  _86
REMARK   32  A    between atoms: _92  and  _94
REMARK   33  A    between atoms: _94  and  _95
REMARK   34  A    between atoms: _94  and  _97
REMARK   35  A    between atoms: _100  and  _102
REMARK   36  A    between atoms: _102  and  _103
REMARK   37  A    between atoms: _102  and  _105
REMARK   38  A    between atoms: _105  and  _106
REMARK   39  A    between atoms: _109  and  _111
REMARK   40  A    between atoms: _111  and  _112
REMARK   41  A    between atoms: _117  and  _118
REMARK   42  A    between atoms: _117  and  _120
REMARK   43  A    between atoms: _120  and  _121
REMARK   44  A    between atoms: _125  and  ZN_355
REMARK   45  A    between atoms: _126  and  _128
REMARK   46  A    between atoms: _128  and  _129
REMARK   47  A    between atoms: _132  and  _134
REMARK   48  A    between atoms: _134  and  _135
REMARK   49  A    between atoms: _134  and  _137
REMARK   50  A    between atoms: _137  and  _138
REMARK   51  A    between atoms: _143  and  _144
REMARK   52  A    between atoms: _146  and  _148
REMARK   53  A    between atoms: _148  and  _149
REMARK   54  A    between atoms: _153  and  _154
REMARK   55  A    between atoms: _159  and  _161
REMARK   56  A    between atoms: _161  and  _162
REMARK   57  A    between atoms: _161  and  _164
REMARK   58  A    between atoms: _164  and  _165
REMARK   59  A    between atoms: _168  and  _170
REMARK   60  A    between atoms: _170  and  _171
REMARK   61  A    between atoms: _170  and  _173
REMARK   62  A    between atoms: _173  and  _174
REMARK   63  A    between atoms: _179  and  _181
REMARK   64  A    between atoms: _181  and  _182
REMARK   65  A    between atoms: _184  and  _186
REMARK   66  A    between atoms: _186  and  _187
REMARK   67  A    between atoms: _186  and  _189
REMARK   68  A    between atoms: _189  and  _190
REMARK   69  A    between atoms: _193  and  _195
REMARK   70  A    between atoms: _195  and  _196
REMARK   71  A    between atoms: _199  and  _201
REMARK   72  A    between atoms: _201  and  _202
REMARK   73  A    between atoms: _201  and  _204
REMARK   74  A    between atoms: _204  and  _205
REMARK   75  A    between atoms: _206  and  ZN_355
REMARK   76  A    between atoms: _210  and  _212
REMARK   77  A    between atoms: _212  and  _213
REMARK   78  A    between atoms: _212  and  _215
REMARK   79  A    between atoms: _218  and  _220
REMARK   80  A    between atoms: _220  and  _221
REMARK   81  A    between atoms: _220  and  _223
REMARK   82  A    between atoms: _223  and  _224
REMARK   83  A    between atoms: _228  and  ZN_354
REMARK   84  A    between atoms: _229  and  _231
REMARK   85  A    between atoms: _231  and  _232
REMARK   86  A    between atoms: _231  and  _234
REMARK   87  A    between atoms: _234  and  _235
REMARK   88  A    between atoms: _235  and  _236
REMARK   89  A    between atoms: _239  and  _241
REMARK   90  A    between atoms: _241  and  _242
REMARK   91  A    between atoms: _241  and  _244
REMARK   92  A    between atoms: _244  and  _245
REMARK   93  A    between atoms: _248  and  _250
REMARK   94  A    between atoms: _250  and  _251
REMARK   95  A    between atoms: _250  and  _253
REMARK   96  A    between atoms: _253  and  _254
REMARK   97  A    between atoms: _258  and  ZN_354
REMARK   98  A    between atoms: _259  and  _261
REMARK   99  A    between atoms: _261  and  _262
REMARK  100  A    between atoms: _261  and  _264
REMARK  101  A    between atoms: _264  and  _265
REMARK  102  A    between atoms: _267  and  _269
REMARK  103  A    between atoms: _269  and  _270
REMARK  104  A    between atoms: _269  and  _272
REMARK  105  A    between atoms: _272  and  _273
REMARK  106  A    between atoms: _276  and  _278
REMARK  107  A    between atoms: _278  and  _279
REMARK  108  A    between atoms: _278  and  _281
REMARK  109  A    between atoms: _281  and  _282
REMARK  110  A    between atoms: _288  and  _290
REMARK  111  A    between atoms: _290  and  _291
REMARK  112  A    between atoms: _290  and  _293
REMARK  113  A    between atoms: _293  and  _294
REMARK  114  A    between atoms: _298  and  ZN_354
REMARK  115  A    between atoms: _299  and  _301
REMARK  116  A    between atoms: _301  and  _302
REMARK  117  A    between atoms: _301  and  _304
REMARK  118  A    between atoms: _304  and  _305
REMARK  119  A    between atoms: _305  and  _306
REMARK  120  A    between atoms: _308  and  _310
REMARK  121  A    between atoms: _310  and  _311
REMARK  122  A    between atoms: _310  and  _313
REMARK  123  A    between atoms: _313  and  _314
REMARK  124  A    between atoms: _319  and  _320
REMARK  125  A    between atoms: _323  and  _324
REMARK  126  A    between atoms: _329  and  _331
REMARK  127  A    between atoms: _331  and  _332
REMARK  128  A    between atoms: _331  and  _334
REMARK  129  A    between atoms: _334  and  _335
REMARK  130  A    between atoms: _340  and  _341
REMARK  131  A    between atoms: _343  and  _345
REMARK  132  A    between atoms: _345  and  _346
REMARK  133  A    between atoms: _345  and  _348
REMARK  134  A    between atoms: _348  and  _349
REMARK                            x       y       z     vdW  Elec       q    Type
REMARK                         _______ _______ _______ _____ _____    ______ ____
ROOT
ATOM      1  O   HOH     1      35.663  51.522  48.143  0.00  0.00    +0.000 OA
ENDROOT
TORSDOF 0
REMARK  Name = ../refined-set-2016/1usn/1usn_pocket.pdb
REMARK  134 active torsions:
REMARK  status: ('A' for Active; 'I' for Inactive)
REMARK    1  A    between atoms: _1  and  _3
REMARK    2  A    between atoms: _3  and  _4
REMARK    3  A    between atoms: _3  and  _6
REMARK    4  A    between atoms: _6  and  _7
REMARK    5  A    between atoms: _14  and  _15
REMARK    6  A    between atoms: _21  and  _22
REMARK    7  A    between atoms: _27  and  _29
REMARK    8  A    between atoms: _29  and  _30
REMARK    9  A    between atoms: _29  and  _32
REMARK   10  A    between atoms: _32  and  _33
REMARK   11  A    between atoms: _37  and  ZN_355
REMARK   12  A    between atoms: _38  and  _40
REMARK   13  A    between atoms: _40  and  _41
REMARK   14  A    between atoms: _40  and  _43
REMARK   15  A    between atoms: _43  and  _44
REMARK   16  A    between atoms: _44  and  _46
REMARK   17  A    between atoms: _46  and  ZN_355
REMARK   18  A    between atoms: _47  and  _49
REMARK   19  A    between atoms: _49  and  _50
REMARK   20  A    between atoms: _49  and  _52
REMARK   21  A    between atoms: _52  and  _53
REMARK   22  A    between atoms: _59  and  _61
REMARK   23  A    between atoms: _61  and  _62
REMARK   24  A    between atoms: _61  and  _64
REMARK   25  A    between atoms: _64  and  _65
REMARK   26  A    between atoms: _70  and  _71
REMARK   27  A    between atoms: _74  and  _75
REMARK   28  A    between atoms: _80  and  _82
REMARK   29  A    between atoms: _82  and  _83
REMARK   30  A    between atoms: _82  and  _85
REMARK   31  A    between atoms: _85  and  _86
REMARK   32  A    between atoms: _92  and  _94
REMARK   33  A    between atoms: _94  and  _95
REMARK   34  A    between atoms: _94  and  _97
REMARK   35  A    between atoms: _100  and  _102
REMARK   36  A    between atoms: _102  and  _103
REMARK   37  A    between atoms: _102  and  _105
REMARK   38  A    between atoms: _105  and  _106
REMARK   39  A    between atoms: _109  and  _111
REMARK   40  A    between atoms: _111  and  _112
REMARK   41  A    between atoms: _117  and  _118
REMARK   42  A    between atoms: _117  and  _120
REMARK   43  A    between atoms: _120  and  _121
REMARK   44  A    between atoms: _125  and  ZN_355
REMARK   45  A    between atoms: _126  and  _128
REMARK   46  A    between atoms: _128  and  _129
REMARK   47  A    between atoms: _132  and  _134
REMARK   48  A    between atoms: _134  and  _135
REMARK   49  A    between atoms: _134  and  _137
REMARK   50  A    between atoms: _137  and  _138
REMARK   51  A    between atoms: _143  and  _144
REMARK   52  A    between atoms: _146  and  _148
REMARK   53  A    between atoms: _148  and  _149
REMARK   54  A    between atoms: _153  and  _154
REMARK   55  A    between atoms: _159  and  _161
REMARK   56  A    between atoms: _161  and  _162
REMARK   57  A    between atoms: _161  and  _164
REMARK   58  A    between atoms: _164  and  _165
REMARK   59  A    between atoms: _168  and  _170
REMARK   60  A    between atoms: _170  and  _171
REMARK   61  A    between atoms: _170  and  _173
REMARK   62  A    between atoms: _173  and  _174
REMARK   63  A    between atoms: _179  and  _181
REMARK   64  A    between atoms: _181  and  _182
REMARK   65  A    between atoms: _184  and  _186
REMARK   66  A    between atoms: _186  and  _187
REMARK   67  A    between atoms: _186  and  _189
REMARK   68  A    between atoms: _189  and  _190
REMARK   69  A    between atoms: _193  and  _195
REMARK   70  A    between atoms: _195  and  _196
REMARK   71  A    between atoms: _199  and  _201
REMARK   72  A    between atoms: _201  and  _202
REMARK   73  A    between atoms: _201  and  _204
REMARK   74  A    between atoms: _204  and  _205
REMARK   75  A    between atoms: _206  and  ZN_355
REMARK   76  A    between atoms: _210  and  _212
REMARK   77  A    between atoms: _212  and  _213
REMARK   78  A    between atoms: _212  and  _215
REMARK   79  A    between atoms: _218  and  _220
REMARK   80  A    between atoms: _220  and  _221
REMARK   81  A    between atoms: _220  and  _223
REMARK   82  A    between atoms: _223  and  _224
REMARK   83  A    between atoms: _228  and  ZN_354
REMARK   84  A    between atoms: _229  and  _231
REMARK   85  A    between atoms: _231  and  _232
REMARK   86  A    between atoms: _231  and  _234
REMARK   87  A    between atoms: _234  and  _235
REMARK   88  A    between atoms: _235  and  _236
REMARK   89  A    between atoms: _239  and  _241
REMARK   90  A    between atoms: _241  and  _242
REMARK   91  A    between atoms: _241  and  _244
REMARK   92  A    between atoms: _244  and  _245
REMARK   93  A    between atoms: _248  and  _250
REMARK   94  A    between atoms: _250  and  _251
REMARK   95  A    between atoms: _250  and  _253
REMARK   96  A    between atoms: _253  and  _254
REMARK   97  A    between atoms: _258  and  ZN_354
REMARK   98  A    between atoms: _259  and  _261
REMARK   99  A    between atoms: _261  and  _262
REMARK  100  A    between atoms: _261  and  _264
REMARK  101  A    between atoms: _264  and  _265
REMARK  102  A    between atoms: _267  and  _269
REMARK  103  A    between atoms: _269  and  _270
REMARK  104  A    between atoms: _269  and  _272
REMARK  105  A    between atoms: _272  and  _273
REMARK  106  A    between atoms: _276  and  _278
REMARK  107  A    between atoms: _278  and  _279
REMARK  108  A    between atoms: _278  and  _281
REMARK  109  A    between atoms: _281  and  _282
REMARK  110  A    between atoms: _288  and  _290
REMARK  111  A    between atoms: _290  and  _291
REMARK  112  A    between atoms: _290  and  _293
REMARK  113  A    between atoms: _293  and  _294
REMARK  114  A    between atoms: _298  and  ZN_354
REMARK  115  A    between atoms: _299  and  _301
REMARK  116  A    between atoms: _301  and  _302
REMARK  117  A    between atoms: _301  and  _304
REMARK  118  A    between atoms: _304  and  _305
REMARK  119  A    between atoms: _305  and  _306
REMARK  120  A    between atoms: _308  and  _310
REMARK  121  A    between atoms: _310  and  _311
REMARK  122  A    between atoms: _310  and  _313
REMARK  123  A    between atoms: _313  and  _314
REMARK  124  A    between atoms: _319  and  _320
REMARK  125  A    between atoms: _323  and  _324
REMARK  126  A    between atoms: _329  and  _331
REMARK  127  A    between atoms: _331  and  _332
REMARK  128  A    between atoms: _331  and  _334
REMARK  129  A    between atoms: _334  and  _335
REMARK  130  A    between atoms: _340  and  _341
REMARK  131  A    between atoms: _343  and  _345
REMARK  132  A    between atoms: _345  and  _346
REMARK  133  A    between atoms: _345  and  _348
REMARK  134  A    between atoms: _348  and  _349
REMARK                            x       y       z     vdW  Elec       q    Type
REMARK                         _______ _______ _______ _____ _____    ______ ____
ROOT
ATOM      1  O   HOH     1      27.611  39.213  57.514  0.00  0.00    +0.000 OA
ENDROOT
TORSDOF 0
REMARK  Name = ../refined-set-2016/1usn/1usn_pocket.pdb
REMARK  134 active torsions:
REMARK  status: ('A' for Active; 'I' for Inactive)
REMARK    1  A    between atoms: _1  and  _3
REMARK    2  A    between atoms: _3  and  _4
REMARK    3  A    between atoms: _3  and  _6
REMARK    4  A    between atoms: _6  and  _7
REMARK    5  A    between atoms: _14  and  _15
REMARK    6  A    between atoms: _21  and  _22
REMARK    7  A    between atoms: _27  and  _29
REMARK    8  A    between atoms: _29  and  _30
REMARK    9  A    between atoms: _29  and  _32
REMARK   10  A    between atoms: _32  and  _33
REMARK   11  A    between atoms: _37  and  ZN_355
REMARK   12  A    between atoms: _38  and  _40
REMARK   13  A    between atoms: _40  and  _41
REMARK   14  A    between atoms: _40  and  _43
REMARK   15  A    between atoms: _43  and  _44
REMARK   16  A    between atoms: _44  and  _46
REMARK   17  A    between atoms: _46  and  ZN_355
REMARK   18  A    between atoms: _47  and  _49
REMARK   19  A    between atoms: _49  and  _50
REMARK   20  A    between atoms: _49  and  _52
REMARK   21  A    between atoms: _52  and  _53
REMARK   22  A    between atoms: _59  and  _61
REMARK   23  A    between atoms: _61  and  _62
REMARK   24  A    between atoms: _61  and  _64
REMARK   25  A    between atoms: _64  and  _65
REMARK   26  A    between atoms: _70  and  _71
REMARK   27  A    between atoms: _74  and  _75
REMARK   28  A    between atoms: _80  and  _82
REMARK   29  A    between atoms: _82  and  _83
REMARK   30  A    between atoms: _82  and  _85
REMARK   31  A    between atoms: _85  and  _86
REMARK   32  A    between atoms: _92  and  _94
REMARK   33  A    between atoms: _94  and  _95
REMARK   34  A    between atoms: _94  and  _97
REMARK   35  A    between atoms: _100  and  _102
REMARK   36  A    between atoms: _102  and  _103
REMARK   37  A    between atoms: _102  and  _105
REMARK   38  A    between atoms: _105  and  _106
REMARK   39  A    between atoms: _109  and  _111
REMARK   40  A    between atoms: _111  and  _112
REMARK   41  A    between atoms: _117  and  _118
REMARK   42  A    between atoms: _117  and  _120
REMARK   43  A    between atoms: _120  and  _121
REMARK   44  A    between atoms: _125  and  ZN_355
REMARK   45  A    between atoms: _126  and  _128
REMARK   46  A    between atoms: _128  and  _129
REMARK   47  A    between atoms: _132  and  _134
REMARK   48  A    between atoms: _134  and  _135
REMARK   49  A    between atoms: _134  and  _137
REMARK   50  A    between atoms: _137  and  _138
REMARK   51  A    between atoms: _143  and  _144
REMARK   52  A    between atoms: _146  and  _148
REMARK   53  A    between atoms: _148  and  _149
REMARK   54  A    between atoms: _153  and  _154
REMARK   55  A    between atoms: _159  and  _161
REMARK   56  A    between atoms: _161  and  _162
REMARK   57  A    between atoms: _161  and  _164
REMARK   58  A    between atoms: _164  and  _165
REMARK   59  A    between atoms: _168  and  _170
REMARK   60  A    between atoms: _170  and  _171
REMARK   61  A    between atoms: _170  and  _173
REMARK   62  A    between atoms: _173  and  _174
REMARK   63  A    between atoms: _179  and  _181
REMARK   64  A    between atoms: _181  and  _182
REMARK   65  A    between atoms: _184  and  _186
REMARK   66  A    between atoms: _186  and  _187
REMARK   67  A    between atoms: _186  and  _189
REMARK   68  A    between atoms: _189  and  _190
REMARK   69  A    between atoms: _193  and  _195
REMARK   70  A    between atoms: _195  and  _196
REMARK   71  A    between atoms: _199  and  _201
REMARK   72  A    between atoms: _201  and  _202
REMARK   73  A    between atoms: _201  and  _204
REMARK   74  A    between atoms: _204  and  _205
REMARK   75  A    between atoms: _206  and  ZN_355
REMARK   76  A    between atoms: _210  and  _212
REMARK   77  A    between atoms: _212  and  _213
REMARK   78  A    between atoms: _212  and  _215
REMARK   79  A    between atoms: _218  and  _220
REMARK   80  A    between atoms: _220  and  _221
REMARK   81  A    between atoms: _220  and  _223
REMARK   82  A    between atoms: _223  and  _224
REMARK   83  A    between atoms: _228  and  ZN_354
REMARK   84  A    between atoms: _229  and  _231
REMARK   85  A    between atoms: _231  and  _232
REMARK   86  A    between atoms: _231  and  _234
REMARK   87  A    between atoms: _234  and  _235
REMARK   88  A    between atoms: _235  and  _236
REMARK   89  A    between atoms: _239  and  _241
REMARK   90  A    between atoms: _241  and  _242
REMARK   91  A    between atoms: _241  and  _244
REMARK   92  A    between atoms: _244  and  _245
REMARK   93  A    between atoms: _248  and  _250
REMARK   94  A    between atoms: _250  and  _251
REMARK   95  A    between atoms: _250  and  _253
REMARK   96  A    between atoms: _253  and  _254
REMARK   97  A    between atoms: _258  and  ZN_354
REMARK   98  A    between atoms: _259  and  _261
REMARK   99  A    between atoms: _261  and  _262
REMARK  100  A    between atoms: _261  and  _264
REMARK  101  A    between atoms: _264  and  _265
REMARK  102  A    between atoms: _267  and  _269
REMARK  103  A    between atoms: _269  and  _270
REMARK  104  A    between atoms: _269  and  _272
REMARK  105  A    between atoms: _272  and  _273
REMARK  106  A    between atoms: _276  and  _278
REMARK  107  A    between atoms: _278  and  _279
REMARK  108  A    between atoms: _278  and  _281
REMARK  109  A    between atoms: _281  and  _282
REMARK  110  A    between atoms: _288  and  _290
REMARK  111  A    between atoms: _290  and  _291
REMARK  112  A    between atoms: _290  and  _293
REMARK  113  A    between atoms: _293  and  _294
REMARK  114  A    between atoms: _298  and  ZN_354
REMARK  115  A    between atoms: _299  and  _301
REMARK  116  A    between atoms: _301  and  _302
REMARK  117  A    between atoms: _301  and  _304
REMARK  118  A    between atoms: _304  and  _305
REMARK  119  A    between atoms: _305  and  _306
REMARK  120  A    between atoms: _308  and  _310
REMARK  121  A    between atoms: _310  and  _311
REMARK  122  A    between atoms: _310  and  _313
REMARK  123  A    between atoms: _313  and  _314
REMARK  124  A    between atoms: _319  and  _320
REMARK  125  A    between atoms: _323  and  _324
REMARK  126  A    between atoms: _329  and  _331
REMARK  127  A    between atoms: _331  and  _332
REMARK  128  A    between atoms: _331  and  _334
REMARK  129  A    between atoms: _334  and  _335
REMARK  130  A    between atoms: _340  and  _341
REMARK  131  A    between atoms: _343  and  _345
REMARK  132  A    between atoms: _345  and  _346
REMARK  133  A    between atoms: _345  and  _348
REMARK  134  A    between atoms: _348  and  _349
REMARK                            x       y       z     vdW  Elec       q    Type
REMARK                         _______ _______ _______ _____ _____    ______ ____
ROOT
ATOM      1  O   HOH     1      28.779  51.574  40.122  0.00  0.00    +0.000 OA
ENDROOT
TORSDOF 0
REMARK  Name = ../refined-set-2016/1usn/1usn_pocket.pdb
REMARK  134 active torsions:
REMARK  status: ('A' for Active; 'I' for Inactive)
REMARK    1  A    between atoms: _1  and  _3
REMARK    2  A    between atoms: _3  and  _4
REMARK    3  A    between atoms: _3  and  _6
REMARK    4  A    between atoms: _6  and  _7
REMARK    5  A    between atoms: _14  and  _15
REMARK    6  A    between atoms: _21  and  _22
REMARK    7  A    between atoms: _27  and  _29
REMARK    8  A    between atoms: _29  and  _30
REMARK    9  A    between atoms: _29  and  _32
REMARK   10  A    between atoms: _32  and  _33
REMARK   11  A    between atoms: _37  and  ZN_355
REMARK   12  A    between atoms: _38  and  _40
REMARK   13  A    between atoms: _40  and  _41
REMARK   14  A    between atoms: _40  and  _43
REMARK   15  A    between atoms: _43  and  _44
REMARK   16  A    between atoms: _44  and  _46
REMARK   17  A    between atoms: _46  and  ZN_355
REMARK   18  A    between atoms: _47  and  _49
REMARK   19  A    between atoms: _49  and  _50
REMARK   20  A    between atoms: _49  and  _52
REMARK   21  A    between atoms: _52  and  _53
REMARK   22  A    between atoms: _59  and  _61
REMARK   23  A    between atoms: _61  and  _62
REMARK   24  A    between atoms: _61  and  _64
REMARK   25  A    between atoms: _64  and  _65
REMARK   26  A    between atoms: _70  and  _71
REMARK   27  A    between atoms: _74  and  _75
REMARK   28  A    between atoms: _80  and  _82
REMARK   29  A    between atoms: _82  and  _83
REMARK   30  A    between atoms: _82  and  _85
REMARK   31  A    between atoms: _85  and  _86
REMARK   32  A    between atoms: _92  and  _94
REMARK   33  A    between atoms: _94  and  _95
REMARK   34  A    between atoms: _94  and  _97
REMARK   35  A    between atoms: _100  and  _102
REMARK   36  A    between atoms: _102  and  _103
REMARK   37  A    between atoms: _102  and  _105
REMARK   38  A    between atoms: _105  and  _106
REMARK   39  A    between atoms: _109  and  _111
REMARK   40  A    between atoms: _111  and  _112
REMARK   41  A    between atoms: _117  and  _118
REMARK   42  A    between atoms: _117  and  _120
REMARK   43  A    between atoms: _120  and  _121
REMARK   44  A    between atoms: _125  and  ZN_355
REMARK   45  A    between atoms: _126  and  _128
REMARK   46  A    between atoms: _128  and  _129
REMARK   47  A    between atoms: _132  and  _134
REMARK   48  A    between atoms: _134  and  _135
REMARK   49  A    between atoms: _134  and  _137
REMARK   50  A    between atoms: _137  and  _138
REMARK   51  A    between atoms: _143  and  _144
REMARK   52  A    between atoms: _146  and  _148
REMARK   53  A    between atoms: _148  and  _149
REMARK   54  A    between atoms: _153  and  _154
REMARK   55  A    between atoms: _159  and  _161
REMARK   56  A    between atoms: _161  and  _162
REMARK   57  A    between atoms: _161  and  _164
REMARK   58  A    between atoms: _164  and  _165
REMARK   59  A    between atoms: _168  and  _170
REMARK   60  A    between atoms: _170  and  _171
REMARK   61  A    between atoms: _170  and  _173
REMARK   62  A    between atoms: _173  and  _174
REMARK   63  A    between atoms: _179  and  _181
REMARK   64  A    between atoms: _181  and  _182
REMARK   65  A    between atoms: _184  and  _186
REMARK   66  A    between atoms: _186  and  _187
REMARK   67  A    between atoms: _186  and  _189
REMARK   68  A    between atoms: _189  and  _190
REMARK   69  A    between atoms: _193  and  _195
REMARK   70  A    between atoms: _195  and  _196
REMARK   71  A    between atoms: _199  and  _201
REMARK   72  A    between atoms: _201  and  _202
REMARK   73  A    between atoms: _201  and  _204
REMARK   74  A    between atoms: _204  and  _205
REMARK   75  A    between atoms: _206  and  ZN_355
REMARK   76  A    between atoms: _210  and  _212
REMARK   77  A    between atoms: _212  and  _213
REMARK   78  A    between atoms: _212  and  _215
REMARK   79  A    between atoms: _218  and  _220
REMARK   80  A    between atoms: _220  and  _221
REMARK   81  A    between atoms: _220  and  _223
REMARK   82  A    between atoms: _223  and  _224
REMARK   83  A    between atoms: _228  and  ZN_354
REMARK   84  A    between atoms: _229  and  _231
REMARK   85  A    between atoms: _231  and  _232
REMARK   86  A    between atoms: _231  and  _234
REMARK   87  A    between atoms: _234  and  _235
REMARK   88  A    between atoms: _235  and  _236
REMARK   89  A    between atoms: _239  and  _241
REMARK   90  A    between atoms: _241  and  _242
REMARK   91  A    between atoms: _241  and  _244
REMARK   92  A    between atoms: _244  and  _245
REMARK   93  A    between atoms: _248  and  _250
REMARK   94  A    between atoms: _250  and  _251
REMARK   95  A    between atoms: _250  and  _253
REMARK   96  A    between atoms: _253  and  _254
REMARK   97  A    between atoms: _258  and  ZN_354
REMARK   98  A    between atoms: _259  and  _261
REMARK   99  A    between atoms: _261  and  _262
REMARK  100  A    between atoms: _261  and  _264
REMARK  101  A    between atoms: _264  and  _265
REMARK  102  A    between atoms: _267  and  _269
REMARK  103  A    between atoms: _269  and  _270
REMARK  104  A    between atoms: _269  and  _272
REMARK  105  A    between atoms: _272  and  _273
REMARK  106  A    between atoms: _276  and  _278
REMARK  107  A    between atoms: _278  and  _279
REMARK  108  A    between atoms: _278  and  _281
REMARK  109  A    between atoms: _281  and  _282
REMARK  110  A    between atoms: _288  and  _290
REMARK  111  A    between atoms: _290  and  _291
REMARK  112  A    between atoms: _290  and  _293
REMARK  113  A    between atoms: _293  and  _294
REMARK  114  A    between atoms: _298  and  ZN_354
REMARK  115  A    between atoms: _299  and  _301
REMARK  116  A    between atoms: _301  and  _302
REMARK  117  A    between atoms: _301  and  _304
REMARK  118  A    between atoms: _304  and  _305
REMARK  119  A    between atoms: _305  and  _306
REMARK  120  A    between atoms: _308  and  _310
REMARK  121  A    between atoms: _310  and  _311
REMARK  122  A    between atoms: _310  and  _313
REMARK  123  A    between atoms: _313  and  _314
REMARK  124  A    between atoms: _319  and  _320
REMARK  125  A    between atoms: _323  and  _324
REMARK  126  A    between atoms: _329  and  _331
REMARK  127  A    between atoms: _331  and  _332
REMARK  128  A    between atoms: _331  and  _334
REMARK  129  A    between atoms: _334  and  _335
REMARK  130  A    between atoms: _340  and  _341
REMARK  131  A    between atoms: _343  and  _345
REMARK  132  A    between atoms: _345  and  _346
REMARK  133  A    between atoms: _345  and  _348
REMARK  134  A    between atoms: _348  and  _349
REMARK                            x       y       z     vdW  Elec       q    Type
REMARK                         _______ _______ _______ _____ _____    ______ ____
ROOT
ATOM      1  O   HOH     1      28.396  49.573  42.441  0.00  0.00    +0.000 OA
ENDROOT
TORSDOF 0
REMARK  Name = ../refined-set-2016/1usn/1usn_pocket.pdb
REMARK  134 active torsions:
REMARK  status: ('A' for Active; 'I' for Inactive)
REMARK    1  A    between atoms: _1  and  _3
REMARK    2  A    between atoms: _3  and  _4
REMARK    3  A    between atoms: _3  and  _6
REMARK    4  A    between atoms: _6  and  _7
REMARK    5  A    between atoms: _14  and  _15
REMARK    6  A    between atoms: _21  and  _22
REMARK    7  A    between atoms: _27  and  _29
REMARK    8  A    between atoms: _29  and  _30
REMARK    9  A    between atoms: _29  and  _32
REMARK   10  A    between atoms: _32  and  _33
REMARK   11  A    between atoms: _37  and  ZN_355
REMARK   12  A    between atoms: _38  and  _40
REMARK   13  A    between atoms: _40  and  _41
REMARK   14  A    between atoms: _40  and  _43
REMARK   15  A    between atoms: _43  and  _44
REMARK   16  A    between atoms: _44  and  _46
REMARK   17  A    between atoms: _46  and  ZN_355
REMARK   18  A    between atoms: _47  and  _49
REMARK   19  A    between atoms: _49  and  _50
REMARK   20  A    between atoms: _49  and  _52
REMARK   21  A    between atoms: _52  and  _53
REMARK   22  A    between atoms: _59  and  _61
REMARK   23  A    between atoms: _61  and  _62
REMARK   24  A    between atoms: _61  and  _64
REMARK   25  A    between atoms: _64  and  _65
REMARK   26  A    between atoms: _70  and  _71
REMARK   27  A    between atoms: _74  and  _75
REMARK   28  A    between atoms: _80  and  _82
REMARK   29  A    between atoms: _82  and  _83
REMARK   30  A    between atoms: _82  and  _85
REMARK   31  A    between atoms: _85  and  _86
REMARK   32  A    between atoms: _92  and  _94
REMARK   33  A    between atoms: _94  and  _95
REMARK   34  A    between atoms: _94  and  _97
REMARK   35  A    between atoms: _100  and  _102
REMARK   36  A    between atoms: _102  and  _103
REMARK   37  A    between atoms: _102  and  _105
REMARK   38  A    between atoms: _105  and  _106
REMARK   39  A    between atoms: _109  and  _111
REMARK   40  A    between atoms: _111  and  _112
REMARK   41  A    between atoms: _117  and  _118
REMARK   42  A    between atoms: _117  and  _120
REMARK   43  A    between atoms: _120  and  _121
REMARK   44  A    between atoms: _125  and  ZN_355
REMARK   45  A    between atoms: _126  and  _128
REMARK   46  A    between atoms: _128  and  _129
REMARK   47  A    between atoms: _132  and  _134
REMARK   48  A    between atoms: _134  and  _135
REMARK   49  A    between atoms: _134  and  _137
REMARK   50  A    between atoms: _137  and  _138
REMARK   51  A    between atoms: _143  and  _144
REMARK   52  A    between atoms: _146  and  _148
REMARK   53  A    between atoms: _148  and  _149
REMARK   54  A    between atoms: _153  and  _154
REMARK   55  A    between atoms: _159  and  _161
REMARK   56  A    between atoms: _161  and  _162
REMARK   57  A    between atoms: _161  and  _164
REMARK   58  A    between atoms: _164  and  _165
REMARK   59  A    between atoms: _168  and  _170
REMARK   60  A    between atoms: _170  and  _171
REMARK   61  A    between atoms: _170  and  _173
REMARK   62  A    between atoms: _173  and  _174
REMARK   63  A    between atoms: _179  and  _181
REMARK   64  A    between atoms: _181  and  _182
REMARK   65  A    between atoms: _184  and  _186
REMARK   66  A    between atoms: _186  and  _187
REMARK   67  A    between atoms: _186  and  _189
REMARK   68  A    between atoms: _189  and  _190
REMARK   69  A    between atoms: _193  and  _195
REMARK   70  A    between atoms: _195  and  _196
REMARK   71  A    between atoms: _199  and  _201
REMARK   72  A    between atoms: _201  and  _202
REMARK   73  A    between atoms: _201  and  _204
REMARK   74  A    between atoms: _204  and  _205
REMARK   75  A    between atoms: _206  and  ZN_355
REMARK   76  A    between atoms: _210  and  _212
REMARK   77  A    between atoms: _212  and  _213
REMARK   78  A    between atoms: _212  and  _215
REMARK   79  A    between atoms: _218  and  _220
REMARK   80  A    between atoms: _220  and  _221
REMARK   81  A    between atoms: _220  and  _223
REMARK   82  A    between atoms: _223  and  _224
REMARK   83  A    between atoms: _228  and  ZN_354
REMARK   84  A    between atoms: _229  and  _231
REMARK   85  A    between atoms: _231  and  _232
REMARK   86  A    between atoms: _231  and  _234
REMARK   87  A    between atoms: _234  and  _235
REMARK   88  A    between atoms: _235  and  _236
REMARK   89  A    between atoms: _239  and  _241
REMARK   90  A    between atoms: _241  and  _242
REMARK   91  A    between atoms: _241  and  _244
REMARK   92  A    between atoms: _244  and  _245
REMARK   93  A    between atoms: _248  and  _250
REMARK   94  A    between atoms: _250  and  _251
REMARK   95  A    between atoms: _250  and  _253
REMARK   96  A    between atoms: _253  and  _254
REMARK   97  A    between atoms: _258  and  ZN_354
REMARK   98  A    between atoms: _259  and  _261
REMARK   99  A    between atoms: _261  and  _262
REMARK  100  A    between atoms: _261  and  _264
REMARK  101  A    between atoms: _264  and  _265
REMARK  102  A    between atoms: _267  and  _269
REMARK  103  A    between atoms: _269  and  _270
REMARK  104  A    between atoms: _269  and  _272
REMARK  105  A    between atoms: _272  and  _273
REMARK  106  A    between atoms: _276  and  _278
REMARK  107  A    between atoms: _278  and  _279
REMARK  108  A    between atoms: _278  and  _281
REMARK  109  A    between atoms: _281  and  _282
REMARK  110  A    between atoms: _288  and  _290
REMARK  111  A    between atoms: _290  and  _291
REMARK  112  A    between atoms: _290  and  _293
REMARK  113  A    between atoms: _293  and  _294
REMARK  114  A    between atoms: _298  and  ZN_354
REMARK  115  A    between atoms: _299  and  _301
REMARK  116  A    between atoms: _301  and  _302
REMARK  117  A    between atoms: _301  and  _304
REMARK  118  A    between atoms: _304  and  _305
REMARK  119  A    between atoms: _305  and  _306
REMARK  120  A    between atoms: _308  and  _310
REMARK  121  A    between atoms: _310  and  _311
REMARK  122  A    between atoms: _310  and  _313
REMARK  123  A    between atoms: _313  and  _314
REMARK  124  A    between atoms: _319  and  _320
REMARK  125  A    between atoms: _323  and  _324
REMARK  126  A    between atoms: _329  and  _331
REMARK  127  A    between atoms: _331  and  _332
REMARK  128  A    between atoms: _331  and  _334
REMARK  129  A    between atoms: _334  and  _335
REMARK  130  A    between atoms: _340  and  _341
REMARK  131  A    between atoms: _343  and  _345
REMARK  132  A    between atoms: _345  and  _346
REMARK  133  A    between atoms: _345  and  _348
REMARK  134  A    between atoms: _348  and  _349
REMARK                            x       y       z     vdW  Elec       q    Type
REMARK                         _______ _______ _______ _____ _____    ______ ____
ROOT
ATOM      1  O   HOH     1      28.039  53.213  54.243  0.00  0.00    +0.000 OA
ENDROOT
TORSDOF 0
REMARK  Name = ../refined-set-2016/1usn/1usn_pocket.pdb
REMARK  134 active torsions:
REMARK  status: ('A' for Active; 'I' for Inactive)
REMARK    1  A    between atoms: _1  and  _3
REMARK    2  A    between atoms: _3  and  _4
REMARK    3  A    between atoms: _3  and  _6
REMARK    4  A    between atoms: _6  and  _7
REMARK    5  A    between atoms: _14  and  _15
REMARK    6  A    between atoms: _21  and  _22
REMARK    7  A    between atoms: _27  and  _29
REMARK    8  A    between atoms: _29  and  _30
REMARK    9  A    between atoms: _29  and  _32
REMARK   10  A    between atoms: _32  and  _33
REMARK   11  A    between atoms: _37  and  ZN_355
REMARK   12  A    between atoms: _38  and  _40
REMARK   13  A    between atoms: _40  and  _41
REMARK   14  A    between atoms: _40  and  _43
REMARK   15  A    between atoms: _43  and  _44
REMARK   16  A    between atoms: _44  and  _46
REMARK   17  A    between atoms: _46  and  ZN_355
REMARK   18  A    between atoms: _47  and  _49
REMARK   19  A    between atoms: _49  and  _50
REMARK   20  A    between atoms: _49  and  _52
REMARK   21  A    between atoms: _52  and  _53
REMARK   22  A    between atoms: _59  and  _61
REMARK   23  A    between atoms: _61  and  _62
REMARK   24  A    between atoms: _61  and  _64
REMARK   25  A    between atoms: _64  and  _65
REMARK   26  A    between atoms: _70  and  _71
REMARK   27  A    between atoms: _74  and  _75
REMARK   28  A    between atoms: _80  and  _82
REMARK   29  A    between atoms: _82  and  _83
REMARK   30  A    between atoms: _82  and  _85
REMARK   31  A    between atoms: _85  and  _86
REMARK   32  A    between atoms: _92  and  _94
REMARK   33  A    between atoms: _94  and  _95
REMARK   34  A    between atoms: _94  and  _97
REMARK   35  A    between atoms: _100  and  _102
REMARK   36  A    between atoms: _102  and  _103
REMARK   37  A    between atoms: _102  and  _105
REMARK   38  A    between atoms: _105  and  _106
REMARK   39  A    between atoms: _109  and  _111
REMARK   40  A    between atoms: _111  and  _112
REMARK   41  A    between atoms: _117  and  _118
REMARK   42  A    between atoms: _117  and  _120
REMARK   43  A    between atoms: _120  and  _121
REMARK   44  A    between atoms: _125  and  ZN_355
REMARK   45  A    between atoms: _126  and  _128
REMARK   46  A    between atoms: _128  and  _129
REMARK   47  A    between atoms: _132  and  _134
REMARK   48  A    between atoms: _134  and  _135
REMARK   49  A    between atoms: _134  and  _137
REMARK   50  A    between atoms: _137  and  _138
REMARK   51  A    between atoms: _143  and  _144
REMARK   52  A    between atoms: _146  and  _148
REMARK   53  A    between atoms: _148  and  _149
REMARK   54  A    between atoms: _153  and  _154
REMARK   55  A    between atoms: _159  and  _161
REMARK   56  A    between atoms: _161  and  _162
REMARK   57  A    between atoms: _161  and  _164
REMARK   58  A    between atoms: _164  and  _165
REMARK   59  A    between atoms: _168  and  _170
REMARK   60  A    between atoms: _170  and  _171
REMARK   61  A    between atoms: _170  and  _173
REMARK   62  A    between atoms: _173  and  _174
REMARK   63  A    between atoms: _179  and  _181
REMARK   64  A    between atoms: _181  and  _182
REMARK   65  A    between atoms: _184  and  _186
REMARK   66  A    between atoms: _186  and  _187
REMARK   67  A    between atoms: _186  and  _189
REMARK   68  A    between atoms: _189  and  _190
REMARK   69  A    between atoms: _193  and  _195
REMARK   70  A    between atoms: _195  and  _196
REMARK   71  A    between atoms: _199  and  _201
REMARK   72  A    between atoms: _201  and  _202
REMARK   73  A    between atoms: _201  and  _204
REMARK   74  A    between atoms: _204  and  _205
REMARK   75  A    between atoms: _206  and  ZN_355
REMARK   76  A    between atoms: _210  and  _212
REMARK   77  A    between atoms: _212  and  _213
REMARK   78  A    between atoms: _212  and  _215
REMARK   79  A    between atoms: _218  and  _220
REMARK   80  A    between atoms: _220  and  _221
REMARK   81  A    between atoms: _220  and  _223
REMARK   82  A    between atoms: _223  and  _224
REMARK   83  A    between atoms: _228  and  ZN_354
REMARK   84  A    between atoms: _229  and  _231
REMARK   85  A    between atoms: _231  and  _232
REMARK   86  A    between atoms: _231  and  _234
REMARK   87  A    between atoms: _234  and  _235
REMARK   88  A    between atoms: _235  and  _236
REMARK   89  A    between atoms: _239  and  _241
REMARK   90  A    between atoms: _241  and  _242
REMARK   91  A    between atoms: _241  and  _244
REMARK   92  A    between atoms: _244  and  _245
REMARK   93  A    between atoms: _248  and  _250
REMARK   94  A    between atoms: _250  and  _251
REMARK   95  A    between atoms: _250  and  _253
REMARK   96  A    between atoms: _253  and  _254
REMARK   97  A    between atoms: _258  and  ZN_354
REMARK   98  A    between atoms: _259  and  _261
REMARK   99  A    between atoms: _261  and  _262
REMARK  100  A    between atoms: _261  and  _264
REMARK  101  A    between atoms: _264  and  _265
REMARK  102  A    between atoms: _267  and  _269
REMARK  103  A    between atoms: _269  and  _270
REMARK  104  A    between atoms: _269  and  _272
REMARK  105  A    between atoms: _272  and  _273
REMARK  106  A    between atoms: _276  and  _278
REMARK  107  A    between atoms: _278  and  _279
REMARK  108  A    between atoms: _278  and  _281
REMARK  109  A    between atoms: _281  and  _282
REMARK  110  A    between atoms: _288  and  _290
REMARK  111  A    between atoms: _290  and  _291
REMARK  112  A    between atoms: _290  and  _293
REMARK  113  A    between atoms: _293  and  _294
REMARK  114  A    between atoms: _298  and  ZN_354
REMARK  115  A    between atoms: _299  and  _301
REMARK  116  A    between atoms: _301  and  _302
REMARK  117  A    between atoms: _301  and  _304
REMARK  118  A    between atoms: _304  and  _305
REMARK  119  A    between atoms: _305  and  _306
REMARK  120  A    between atoms: _308  and  _310
REMARK  121  A    between atoms: _310  and  _311
REMARK  122  A    between atoms: _310  and  _313
REMARK  123  A    between atoms: _313  and  _314
REMARK  124  A    between atoms: _319  and  _320
REMARK  125  A    between atoms: _323  and  _324
REMARK  126  A    between atoms: _329  and  _331
REMARK  127  A    between atoms: _331  and  _332
REMARK  128  A    between atoms: _331  and  _334
REMARK  129  A    between atoms: _334  and  _335
REMARK  130  A    between atoms: _340  and  _341
REMARK  131  A    between atoms: _343  and  _345
REMARK  132  A    between atoms: _345  and  _346
REMARK  133  A    between atoms: _345  and  _348
REMARK  134  A    between atoms: _348  and  _349
REMARK                            x       y       z     vdW  Elec       q    Type
REMARK                         _______ _______ _______ _____ _____    ______ ____
ROOT
ATOM      1  O   HOH     1      22.532  38.144  52.169  0.00  0.00    +0.000 OA
ENDROOT
TORSDOF 0
REMARK  Name = ../refined-set-2016/1usn/1usn_pocket.pdb
REMARK  134 active torsions:
REMARK  status: ('A' for Active; 'I' for Inactive)
REMARK    1  A    between atoms: _1  and  _3
REMARK    2  A    between atoms: _3  and  _4
REMARK    3  A    between atoms: _3  and  _6
REMARK    4  A    between atoms: _6  and  _7
REMARK    5  A    between atoms: _14  and  _15
REMARK    6  A    between atoms: _21  and  _22
REMARK    7  A    between atoms: _27  and  _29
REMARK    8  A    between atoms: _29  and  _30
REMARK    9  A    between atoms: _29  and  _32
REMARK   10  A    between atoms: _32  and  _33
REMARK   11  A    between atoms: _37  and  ZN_355
REMARK   12  A    between atoms: _38  and  _40
REMARK   13  A    between atoms: _40  and  _41
REMARK   14  A    between atoms: _40  and  _43
REMARK   15  A    between atoms: _43  and  _44
REMARK   16  A    between atoms: _44  and  _46
REMARK   17  A    between atoms: _46  and  ZN_355
REMARK   18  A    between atoms: _47  and  _49
REMARK   19  A    between atoms: _49  and  _50
REMARK   20  A    between atoms: _49  and  _52
REMARK   21  A    between atoms: _52  and  _53
REMARK   22  A    between atoms: _59  and  _61
REMARK   23  A    between atoms: _61  and  _62
REMARK   24  A    between atoms: _61  and  _64
REMARK   25  A    between atoms: _64  and  _65
REMARK   26  A    between atoms: _70  and  _71
REMARK   27  A    between atoms: _74  and  _75
REMARK   28  A    between atoms: _80  and  _82
REMARK   29  A    between atoms: _82  and  _83
REMARK   30  A    between atoms: _82  and  _85
REMARK   31  A    between atoms: _85  and  _86
REMARK   32  A    between atoms: _92  and  _94
REMARK   33  A    between atoms: _94  and  _95
REMARK   34  A    between atoms: _94  and  _97
REMARK   35  A    between atoms: _100  and  _102
REMARK   36  A    between atoms: _102  and  _103
REMARK   37  A    between atoms: _102  and  _105
REMARK   38  A    between atoms: _105  and  _106
REMARK   39  A    between atoms: _109  and  _111
REMARK   40  A    between atoms: _111  and  _112
REMARK   41  A    between atoms: _117  and  _118
REMARK   42  A    between atoms: _117  and  _120
REMARK   43  A    between atoms: _120  and  _121
REMARK   44  A    between atoms: _125  and  ZN_355
REMARK   45  A    between atoms: _126  and  _128
REMARK   46  A    between atoms: _128  and  _129
REMARK   47  A    between atoms: _132  and  _134
REMARK   48  A    between atoms: _134  and  _135
REMARK   49  A    between atoms: _134  and  _137
REMARK   50  A    between atoms: _137  and  _138
REMARK   51  A    between atoms: _143  and  _144
REMARK   52  A    between atoms: _146  and  _148
REMARK   53  A    between atoms: _148  and  _149
REMARK   54  A    between atoms: _153  and  _154
REMARK   55  A    between atoms: _159  and  _161
REMARK   56  A    between atoms: _161  and  _162
REMARK   57  A    between atoms: _161  and  _164
REMARK   58  A    between atoms: _164  and  _165
REMARK   59  A    between atoms: _168  and  _170
REMARK   60  A    between atoms: _170  and  _171
REMARK   61  A    between atoms: _170  and  _173
REMARK   62  A    between atoms: _173  and  _174
REMARK   63  A    between atoms: _179  and  _181
REMARK   64  A    between atoms: _181  and  _182
REMARK   65  A    between atoms: _184  and  _186
REMARK   66  A    between atoms: _186  and  _187
REMARK   67  A    between atoms: _186  and  _189
REMARK   68  A    between atoms: _189  and  _190
REMARK   69  A    between atoms: _193  and  _195
REMARK   70  A    between atoms: _195  and  _196
REMARK   71  A    between atoms: _199  and  _201
REMARK   72  A    between atoms: _201  and  _202
REMARK   73  A    between atoms: _201  and  _204
REMARK   74  A    between atoms: _204  and  _205
REMARK   75  A    between atoms: _206  and  ZN_355
REMARK   76  A    between atoms: _210  and  _212
REMARK   77  A    between atoms: _212  and  _213
REMARK   78  A    between atoms: _212  and  _215
REMARK   79  A    between atoms: _218  and  _220
REMARK   80  A    between atoms: _220  and  _221
REMARK   81  A    between atoms: _220  and  _223
REMARK   82  A    between atoms: _223  and  _224
REMARK   83  A    between atoms: _228  and  ZN_354
REMARK   84  A    between atoms: _229  and  _231
REMARK   85  A    between atoms: _231  and  _232
REMARK   86  A    between atoms: _231  and  _234
REMARK   87  A    between atoms: _234  and  _235
REMARK   88  A    between atoms: _235  and  _236
REMARK   89  A    between atoms: _239  and  _241
REMARK   90  A    between atoms: _241  and  _242
REMARK   91  A    between atoms: _241  and  _244
REMARK   92  A    between atoms: _244  and  _245
REMARK   93  A    between atoms: _248  and  _250
REMARK   94  A    between atoms: _250  and  _251
REMARK   95  A    between atoms: _250  and  _253
REMARK   96  A    between atoms: _253  and  _254
REMARK   97  A    between atoms: _258  and  ZN_354
REMARK   98  A    between atoms: _259  and  _261
REMARK   99  A    between atoms: _261  and  _262
REMARK  100  A    between atoms: _261  and  _264
REMARK  101  A    between atoms: _264  and  _265
REMARK  102  A    between atoms: _267  and  _269
REMARK  103  A    between atoms: _269  and  _270
REMARK  104  A    between atoms: _269  and  _272
REMARK  105  A    between atoms: _272  and  _273
REMARK  106  A    between atoms: _276  and  _278
REMARK  107  A    between atoms: _278  and  _279
REMARK  108  A    between atoms: _278  and  _281
REMARK  109  A    between atoms: _281  and  _282
REMARK  110  A    between atoms: _288  and  _290
REMARK  111  A    between atoms: _290  and  _291
REMARK  112  A    between atoms: _290  and  _293
REMARK  113  A    between atoms: _293  and  _294
REMARK  114  A    between atoms: _298  and  ZN_354
REMARK  115  A    between atoms: _299  and  _301
REMARK  116  A    between atoms: _301  and  _302
REMARK  117  A    between atoms: _301  and  _304
REMARK  118  A    between atoms: _304  and  _305
REMARK  119  A    between atoms: _305  and  _306
REMARK  120  A    between atoms: _308  and  _310
REMARK  121  A    between atoms: _310  and  _311
REMARK  122  A    between atoms: _310  and  _313
REMARK  123  A    between atoms: _313  and  _314
REMARK  124  A    between atoms: _319  and  _320
REMARK  125  A    between atoms: _323  and  _324
REMARK  126  A    between atoms: _329  and  _331
REMARK  127  A    between atoms: _331  and  _332
REMARK  128  A    between atoms: _331  and  _334
REMARK  129  A    between atoms: _334  and  _335
REMARK  130  A    between atoms: _340  and  _341
REMARK  131  A    between atoms: _343  and  _345
REMARK  132  A    between atoms: _345  and  _346
REMARK  133  A    between atoms: _345  and  _348
REMARK  134  A    between atoms: _348  and  _349
REMARK                            x       y       z     vdW  Elec       q    Type
REMARK                         _______ _______ _______ _____ _____    ______ ____
ROOT
ATOM      1  O   HOH     1      24.095  42.052  40.958  0.00  0.00    +0.000 OA
ENDROOT
TORSDOF 0
REMARK  Name = ../refined-set-2016/1usn/1usn_pocket.pdb
REMARK  134 active torsions:
REMARK  status: ('A' for Active; 'I' for Inactive)
REMARK    1  A    between atoms: _1  and  _3
REMARK    2  A    between atoms: _3  and  _4
REMARK    3  A    between atoms: _3  and  _6
REMARK    4  A    between atoms: _6  and  _7
REMARK    5  A    between atoms: _14  and  _15
REMARK    6  A    between atoms: _21  and  _22
REMARK    7  A    between atoms: _27  and  _29
REMARK    8  A    between atoms: _29  and  _30
REMARK    9  A    between atoms: _29  and  _32
REMARK   10  A    between atoms: _32  and  _33
REMARK   11  A    between atoms: _37  and  ZN_355
REMARK   12  A    between atoms: _38  and  _40
REMARK   13  A    between atoms: _40  and  _41
REMARK   14  A    between atoms: _40  and  _43
REMARK   15  A    between atoms: _43  and  _44
REMARK   16  A    between atoms: _44  and  _46
REMARK   17  A    between atoms: _46  and  ZN_355
REMARK   18  A    between atoms: _47  and  _49
REMARK   19  A    between atoms: _49  and  _50
REMARK   20  A    between atoms: _49  and  _52
REMARK   21  A    between atoms: _52  and  _53
REMARK   22  A    between atoms: _59  and  _61
REMARK   23  A    between atoms: _61  and  _62
REMARK   24  A    between atoms: _61  and  _64
REMARK   25  A    between atoms: _64  and  _65
REMARK   26  A    between atoms: _70  and  _71
REMARK   27  A    between atoms: _74  and  _75
REMARK   28  A    between atoms: _80  and  _82
REMARK   29  A    between atoms: _82  and  _83
REMARK   30  A    between atoms: _82  and  _85
REMARK   31  A    between atoms: _85  and  _86
REMARK   32  A    between atoms: _92  and  _94
REMARK   33  A    between atoms: _94  and  _95
REMARK   34  A    between atoms: _94  and  _97
REMARK   35  A    between atoms: _100  and  _102
REMARK   36  A    between atoms: _102  and  _103
REMARK   37  A    between atoms: _102  and  _105
REMARK   38  A    between atoms: _105  and  _106
REMARK   39  A    between atoms: _109  and  _111
REMARK   40  A    between atoms: _111  and  _112
REMARK   41  A    between atoms: _117  and  _118
REMARK   42  A    between atoms: _117  and  _120
REMARK   43  A    between atoms: _120  and  _121
REMARK   44  A    between atoms: _125  and  ZN_355
REMARK   45  A    between atoms: _126  and  _128
REMARK   46  A    between atoms: _128  and  _129
REMARK   47  A    between atoms: _132  and  _134
REMARK   48  A    between atoms: _134  and  _135
REMARK   49  A    between atoms: _134  and  _137
REMARK   50  A    between atoms: _137  and  _138
REMARK   51  A    between atoms: _143  and  _144
REMARK   52  A    between atoms: _146  and  _148
REMARK   53  A    between atoms: _148  and  _149
REMARK   54  A    between atoms: _153  and  _154
REMARK   55  A    between atoms: _159  and  _161
REMARK   56  A    between atoms: _161  and  _162
REMARK   57  A    between atoms: _161  and  _164
REMARK   58  A    between atoms: _164  and  _165
REMARK   59  A    between atoms: _168  and  _170
REMARK   60  A    between atoms: _170  and  _171
REMARK   61  A    between atoms: _170  and  _173
REMARK   62  A    between atoms: _173  and  _174
REMARK   63  A    between atoms: _179  and  _181
REMARK   64  A    between atoms: _181  and  _182
REMARK   65  A    between atoms: _184  and  _186
REMARK   66  A    between atoms: _186  and  _187
REMARK   67  A    between atoms: _186  and  _189
REMARK   68  A    between atoms: _189  and  _190
REMARK   69  A    between atoms: _193  and  _195
REMARK   70  A    between atoms: _195  and  _196
REMARK   71  A    between atoms: _199  and  _201
REMARK   72  A    between atoms: _201  and  _202
REMARK   73  A    between atoms: _201  and  _204
REMARK   74  A    between atoms: _204  and  _205
REMARK   75  A    between atoms: _206  and  ZN_355
REMARK   76  A    between atoms: _210  and  _212
REMARK   77  A    between atoms: _212  and  _213
REMARK   78  A    between atoms: _212  and  _215
REMARK   79  A    between atoms: _218  and  _220
REMARK   80  A    between atoms: _220  and  _221
REMARK   81  A    between atoms: _220  and  _223
REMARK   82  A    between atoms: _223  and  _224
REMARK   83  A    between atoms: _228  and  ZN_354
REMARK   84  A    between atoms: _229  and  _231
REMARK   85  A    between atoms: _231  and  _232
REMARK   86  A    between atoms: _231  and  _234
REMARK   87  A    between atoms: _234  and  _235
REMARK   88  A    between atoms: _235  and  _236
REMARK   89  A    between atoms: _239  and  _241
REMARK   90  A    between atoms: _241  and  _242
REMARK   91  A    between atoms: _241  and  _244
REMARK   92  A    between atoms: _244  and  _245
REMARK   93  A    between atoms: _248  and  _250
REMARK   94  A    between atoms: _250  and  _251
REMARK   95  A    between atoms: _250  and  _253
REMARK   96  A    between atoms: _253  and  _254
REMARK   97  A    between atoms: _258  and  ZN_354
REMARK   98  A    between atoms: _259  and  _261
REMARK   99  A    between atoms: _261  and  _262
REMARK  100  A    between atoms: _261  and  _264
REMARK  101  A    between atoms: _264  and  _265
REMARK  102  A    between atoms: _267  and  _269
REMARK  103  A    between atoms: _269  and  _270
REMARK  104  A    between atoms: _269  and  _272
REMARK  105  A    between atoms: _272  and  _273
REMARK  106  A    between atoms: _276  and  _278
REMARK  107  A    between atoms: _278  and  _279
REMARK  108  A    between atoms: _278  and  _281
REMARK  109  A    between atoms: _281  and  _282
REMARK  110  A    between atoms: _288  and  _290
REMARK  111  A    between atoms: _290  and  _291
REMARK  112  A    between atoms: _290  and  _293
REMARK  113  A    between atoms: _293  and  _294
REMARK  114  A    between atoms: _298  and  ZN_354
REMARK  115  A    between atoms: _299  and  _301
REMARK  116  A    between atoms: _301  and  _302
REMARK  117  A    between atoms: _301  and  _304
REMARK  118  A    between atoms: _304  and  _305
REMARK  119  A    between atoms: _305  and  _306
REMARK  120  A    between atoms: _308  and  _310
REMARK  121  A    between atoms: _310  and  _311
REMARK  122  A    between atoms: _310  and  _313
REMARK  123  A    between atoms: _313  and  _314
REMARK  124  A    between atoms: _319  and  _320
REMARK  125  A    between atoms: _323  and  _324
REMARK  126  A    between atoms: _329  and  _331
REMARK  127  A    between atoms: _331  and  _332
REMARK  128  A    between atoms: _331  and  _334
REMARK  129  A    between atoms: _334  and  _335
REMARK  130  A    between atoms: _340  and  _341
REMARK  131  A    between atoms: _343  and  _345
REMARK  132  A    between atoms: _345  and  _346
REMARK  133  A    between atoms: _345  and  _348
REMARK  134  A    between atoms: _348  and  _349
REMARK                            x       y       z     vdW  Elec       q    Type
REMARK                         _______ _______ _______ _____ _____    ______ ____
ROOT
ATOM      1  O   HOH     1      34.315  55.319  46.811  0.00  0.00    +0.000 OA
ENDROOT
TORSDOF 0
REMARK  Name = ../refined-set-2016/1usn/1usn_pocket.pdb
REMARK  134 active torsions:
REMARK  status: ('A' for Active; 'I' for Inactive)
REMARK    1  A    between atoms: _1  and  _3
REMARK    2  A    between atoms: _3  and  _4
REMARK    3  A    between atoms: _3  and  _6
REMARK    4  A    between atoms: _6  and  _7
REMARK    5  A    between atoms: _14  and  _15
REMARK    6  A    between atoms: _21  and  _22
REMARK    7  A    between atoms: _27  and  _29
REMARK    8  A    between atoms: _29  and  _30
REMARK    9  A    between atoms: _29  and  _32
REMARK   10  A    between atoms: _32  and  _33
REMARK   11  A    between atoms: _37  and  ZN_355
REMARK   12  A    between atoms: _38  and  _40
REMARK   13  A    between atoms: _40  and  _41
REMARK   14  A    between atoms: _40  and  _43
REMARK   15  A    between atoms: _43  and  _44
REMARK   16  A    between atoms: _44  and  _46
REMARK   17  A    between atoms: _46  and  ZN_355
REMARK   18  A    between atoms: _47  and  _49
REMARK   19  A    between atoms: _49  and  _50
REMARK   20  A    between atoms: _49  and  _52
REMARK   21  A    between atoms: _52  and  _53
REMARK   22  A    between atoms: _59  and  _61
REMARK   23  A    between atoms: _61  and  _62
REMARK   24  A    between atoms: _61  and  _64
REMARK   25  A    between atoms: _64  and  _65
REMARK   26  A    between atoms: _70  and  _71
REMARK   27  A    between atoms: _74  and  _75
REMARK   28  A    between atoms: _80  and  _82
REMARK   29  A    between atoms: _82  and  _83
REMARK   30  A    between atoms: _82  and  _85
REMARK   31  A    between atoms: _85  and  _86
REMARK   32  A    between atoms: _92  and  _94
REMARK   33  A    between atoms: _94  and  _95
REMARK   34  A    between atoms: _94  and  _97
REMARK   35  A    between atoms: _100  and  _102
REMARK   36  A    between atoms: _102  and  _103
REMARK   37  A    between atoms: _102  and  _105
REMARK   38  A    between atoms: _105  and  _106
REMARK   39  A    between atoms: _109  and  _111
REMARK   40  A    between atoms: _111  and  _112
REMARK   41  A    between atoms: _117  and  _118
REMARK   42  A    between atoms: _117  and  _120
REMARK   43  A    between atoms: _120  and  _121
REMARK   44  A    between atoms: _125  and  ZN_355
REMARK   45  A    between atoms: _126  and  _128
REMARK   46  A    between atoms: _128  and  _129
REMARK   47  A    between atoms: _132  and  _134
REMARK   48  A    between atoms: _134  and  _135
REMARK   49  A    between atoms: _134  and  _137
REMARK   50  A    between atoms: _137  and  _138
REMARK   51  A    between atoms: _143  and  _144
REMARK   52  A    between atoms: _146  and  _148
REMARK   53  A    between atoms: _148  and  _149
REMARK   54  A    between atoms: _153  and  _154
REMARK   55  A    between atoms: _159  and  _161
REMARK   56  A    between atoms: _161  and  _162
REMARK   57  A    between atoms: _161  and  _164
REMARK   58  A    between atoms: _164  and  _165
REMARK   59  A    between atoms: _168  and  _170
REMARK   60  A    between atoms: _170  and  _171
REMARK   61  A    between atoms: _170  and  _173
REMARK   62  A    between atoms: _173  and  _174
REMARK   63  A    between atoms: _179  and  _181
REMARK   64  A    between atoms: _181  and  _182
REMARK   65  A    between atoms: _184  and  _186
REMARK   66  A    between atoms: _186  and  _187
REMARK   67  A    between atoms: _186  and  _189
REMARK   68  A    between atoms: _189  and  _190
REMARK   69  A    between atoms: _193  and  _195
REMARK   70  A    between atoms: _195  and  _196
REMARK   71  A    between atoms: _199  and  _201
REMARK   72  A    between atoms: _201  and  _202
REMARK   73  A    between atoms: _201  and  _204
REMARK   74  A    between atoms: _204  and  _205
REMARK   75  A    between atoms: _206  and  ZN_355
REMARK   76  A    between atoms: _210  and  _212
REMARK   77  A    between atoms: _212  and  _213
REMARK   78  A    between atoms: _212  and  _215
REMARK   79  A    between atoms: _218  and  _220
REMARK   80  A    between atoms: _220  and  _221
REMARK   81  A    between atoms: _220  and  _223
REMARK   82  A    between atoms: _223  and  _224
REMARK   83  A    between atoms: _228  and  ZN_354
REMARK   84  A    between atoms: _229  and  _231
REMARK   85  A    between atoms: _231  and  _232
REMARK   86  A    between atoms: _231  and  _234
REMARK   87  A    between atoms: _234  and  _235
REMARK   88  A    between atoms: _235  and  _236
REMARK   89  A    between atoms: _239  and  _241
REMARK   90  A    between atoms: _241  and  _242
REMARK   91  A    between atoms: _241  and  _244
REMARK   92  A    between atoms: _244  and  _245
REMARK   93  A    between atoms: _248  and  _250
REMARK   94  A    between atoms: _250  and  _251
REMARK   95  A    between atoms: _250  and  _253
REMARK   96  A    between atoms: _253  and  _254
REMARK   97  A    between atoms: _258  and  ZN_354
REMARK   98  A    between atoms: _259  and  _261
REMARK   99  A    between atoms: _261  and  _262
REMARK  100  A    between atoms: _261  and  _264
REMARK  101  A    between atoms: _264  and  _265
REMARK  102  A    between atoms: _267  and  _269
REMARK  103  A    between atoms: _269  and  _270
REMARK  104  A    between atoms: _269  and  _272
REMARK  105  A    between atoms: _272  and  _273
REMARK  106  A    between atoms: _276  and  _278
REMARK  107  A    between atoms: _278  and  _279
REMARK  108  A    between atoms: _278  and  _281
REMARK  109  A    between atoms: _281  and  _282
REMARK  110  A    between atoms: _288  and  _290
REMARK  111  A    between atoms: _290  and  _291
REMARK  112  A    between atoms: _290  and  _293
REMARK  113  A    between atoms: _293  and  _294
REMARK  114  A    between atoms: _298  and  ZN_354
REMARK  115  A    between atoms: _299  and  _301
REMARK  116  A    between atoms: _301  and  _302
REMARK  117  A    between atoms: _301  and  _304
REMARK  118  A    between atoms: _304  and  _305
REMARK  119  A    between atoms: _305  and  _306
REMARK  120  A    between atoms: _308  and  _310
REMARK  121  A    between atoms: _310  and  _311
REMARK  122  A    between atoms: _310  and  _313
REMARK  123  A    between atoms: _313  and  _314
REMARK  124  A    between atoms: _319  and  _320
REMARK  125  A    between atoms: _323  and  _324
REMARK  126  A    between atoms: _329  and  _331
REMARK  127  A    between atoms: _331  and  _332
REMARK  128  A    between atoms: _331  and  _334
REMARK  129  A    between atoms: _334  and  _335
REMARK  130  A    between atoms: _340  and  _341
REMARK  131  A    between atoms: _343  and  _345
REMARK  132  A    between atoms: _345  and  _346
REMARK  133  A    between atoms: _345  and  _348
REMARK  134  A    between atoms: _348  and  _349
REMARK                            x       y       z     vdW  Elec       q    Type
REMARK                         _______ _______ _______ _____ _____    ______ ____
ROOT
ATOM      1  O   HOH     1      22.736  40.361  53.700  0.00  0.00    +0.000 OA
ENDROOT
TORSDOF 0
REMARK  Name = ../refined-set-2016/1usn/1usn_pocket.pdb
REMARK  134 active torsions:
REMARK  status: ('A' for Active; 'I' for Inactive)
REMARK    1  A    between atoms: _1  and  _3
REMARK    2  A    between atoms: _3  and  _4
REMARK    3  A    between atoms: _3  and  _6
REMARK    4  A    between atoms: _6  and  _7
REMARK    5  A    between atoms: _14  and  _15
REMARK    6  A    between atoms: _21  and  _22
REMARK    7  A    between atoms: _27  and  _29
REMARK    8  A    between atoms: _29  and  _30
REMARK    9  A    between atoms: _29  and  _32
REMARK   10  A    between atoms: _32  and  _33
REMARK   11  A    between atoms: _37  and  ZN_355
REMARK   12  A    between atoms: _38  and  _40
REMARK   13  A    between atoms: _40  and  _41
REMARK   14  A    between atoms: _40  and  _43
REMARK   15  A    between atoms: _43  and  _44
REMARK   16  A    between atoms: _44  and  _46
REMARK   17  A    between atoms: _46  and  ZN_355
REMARK   18  A    between atoms: _47  and  _49
REMARK   19  A    between atoms: _49  and  _50
REMARK   20  A    between atoms: _49  and  _52
REMARK   21  A    between atoms: _52  and  _53
REMARK   22  A    between atoms: _59  and  _61
REMARK   23  A    between atoms: _61  and  _62
REMARK   24  A    between atoms: _61  and  _64
REMARK   25  A    between atoms: _64  and  _65
REMARK   26  A    between atoms: _70  and  _71
REMARK   27  A    between atoms: _74  and  _75
REMARK   28  A    between atoms: _80  and  _82
REMARK   29  A    between atoms: _82  and  _83
REMARK   30  A    between atoms: _82  and  _85
REMARK   31  A    between atoms: _85  and  _86
REMARK   32  A    between atoms: _92  and  _94
REMARK   33  A    between atoms: _94  and  _95
REMARK   34  A    between atoms: _94  and  _97
REMARK   35  A    between atoms: _100  and  _102
REMARK   36  A    between atoms: _102  and  _103
REMARK   37  A    between atoms: _102  and  _105
REMARK   38  A    between atoms: _105  and  _106
REMARK   39  A    between atoms: _109  and  _111
REMARK   40  A    between atoms: _111  and  _112
REMARK   41  A    between atoms: _117  and  _118
REMARK   42  A    between atoms: _117  and  _120
REMARK   43  A    between atoms: _120  and  _121
REMARK   44  A    between atoms: _125  and  ZN_355
REMARK   45  A    between atoms: _126  and  _128
REMARK   46  A    between atoms: _128  and  _129
REMARK   47  A    between atoms: _132  and  _134
REMARK   48  A    between atoms: _134  and  _135
REMARK   49  A    between atoms: _134  and  _137
REMARK   50  A    between atoms: _137  and  _138
REMARK   51  A    between atoms: _143  and  _144
REMARK   52  A    between atoms: _146  and  _148
REMARK   53  A    between atoms: _148  and  _149
REMARK   54  A    between atoms: _153  and  _154
REMARK   55  A    between atoms: _159  and  _161
REMARK   56  A    between atoms: _161  and  _162
REMARK   57  A    between atoms: _161  and  _164
REMARK   58  A    between atoms: _164  and  _165
REMARK   59  A    between atoms: _168  and  _170
REMARK   60  A    between atoms: _170  and  _171
REMARK   61  A    between atoms: _170  and  _173
REMARK   62  A    between atoms: _173  and  _174
REMARK   63  A    between atoms: _179  and  _181
REMARK   64  A    between atoms: _181  and  _182
REMARK   65  A    between atoms: _184  and  _186
REMARK   66  A    between atoms: _186  and  _187
REMARK   67  A    between atoms: _186  and  _189
REMARK   68  A    between atoms: _189  and  _190
REMARK   69  A    between atoms: _193  and  _195
REMARK   70  A    between atoms: _195  and  _196
REMARK   71  A    between atoms: _199  and  _201
REMARK   72  A    between atoms: _201  and  _202
REMARK   73  A    between atoms: _201  and  _204
REMARK   74  A    between atoms: _204  and  _205
REMARK   75  A    between atoms: _206  and  ZN_355
REMARK   76  A    between atoms: _210  and  _212
REMARK   77  A    between atoms: _212  and  _213
REMARK   78  A    between atoms: _212  and  _215
REMARK   79  A    between atoms: _218  and  _220
REMARK   80  A    between atoms: _220  and  _221
REMARK   81  A    between atoms: _220  and  _223
REMARK   82  A    between atoms: _223  and  _224
REMARK   83  A    between atoms: _228  and  ZN_354
REMARK   84  A    between atoms: _229  and  _231
REMARK   85  A    between atoms: _231  and  _232
REMARK   86  A    between atoms: _231  and  _234
REMARK   87  A    between atoms: _234  and  _235
REMARK   88  A    between atoms: _235  and  _236
REMARK   89  A    between atoms: _239  and  _241
REMARK   90  A    between atoms: _241  and  _242
REMARK   91  A    between atoms: _241  and  _244
REMARK   92  A    between atoms: _244  and  _245
REMARK   93  A    between atoms: _248  and  _250
REMARK   94  A    between atoms: _250  and  _251
REMARK   95  A    between atoms: _250  and  _253
REMARK   96  A    between atoms: _253  and  _254
REMARK   97  A    between atoms: _258  and  ZN_354
REMARK   98  A    between atoms: _259  and  _261
REMARK   99  A    between atoms: _261  and  _262
REMARK  100  A    between atoms: _261  and  _264
REMARK  101  A    between atoms: _264  and  _265
REMARK  102  A    between atoms: _267  and  _269
REMARK  103  A    between atoms: _269  and  _270
REMARK  104  A    between atoms: _269  and  _272
REMARK  105  A    between atoms: _272  and  _273
REMARK  106  A    between atoms: _276  and  _278
REMARK  107  A    between atoms: _278  and  _279
REMARK  108  A    between atoms: _278  and  _281
REMARK  109  A    between atoms: _281  and  _282
REMARK  110  A    between atoms: _288  and  _290
REMARK  111  A    between atoms: _290  and  _291
REMARK  112  A    between atoms: _290  and  _293
REMARK  113  A    between atoms: _293  and  _294
REMARK  114  A    between atoms: _298  and  ZN_354
REMARK  115  A    between atoms: _299  and  _301
REMARK  116  A    between atoms: _301  and  _302
REMARK  117  A    between atoms: _301  and  _304
REMARK  118  A    between atoms: _304  and  _305
REMARK  119  A    between atoms: _305  and  _306
REMARK  120  A    between atoms: _308  and  _310
REMARK  121  A    between atoms: _310  and  _311
REMARK  122  A    between atoms: _310  and  _313
REMARK  123  A    between atoms: _313  and  _314
REMARK  124  A    between atoms: _319  and  _320
REMARK  125  A    between atoms: _323  and  _324
REMARK  126  A    between atoms: _329  and  _331
REMARK  127  A    between atoms: _331  and  _332
REMARK  128  A    between atoms: _331  and  _334
REMARK  129  A    between atoms: _334  and  _335
REMARK  130  A    between atoms: _340  and  _341
REMARK  131  A    between atoms: _343  and  _345
REMARK  132  A    between atoms: _345  and  _346
REMARK  133  A    between atoms: _345  and  _348
REMARK  134  A    between atoms: _348  and  _349
REMARK                            x       y       z     vdW  Elec       q    Type
REMARK                         _______ _______ _______ _____ _____    ______ ____
ROOT
ATOM      1  O   HOH     1      21.199  49.413  39.548  0.00  0.00    +0.000 OA
ENDROOT
TORSDOF 0
REMARK  Name = ../refined-set-2016/1usn/1usn_pocket.pdb
REMARK  134 active torsions:
REMARK  status: ('A' for Active; 'I' for Inactive)
REMARK    1  A    between atoms: _1  and  _3
REMARK    2  A    between atoms: _3  and  _4
REMARK    3  A    between atoms: _3  and  _6
REMARK    4  A    between atoms: _6  and  _7
REMARK    5  A    between atoms: _14  and  _15
REMARK    6  A    between atoms: _21  and  _22
REMARK    7  A    between atoms: _27  and  _29
REMARK    8  A    between atoms: _29  and  _30
REMARK    9  A    between atoms: _29  and  _32
REMARK   10  A    between atoms: _32  and  _33
REMARK   11  A    between atoms: _37  and  ZN_355
REMARK   12  A    between atoms: _38  and  _40
REMARK   13  A    between atoms: _40  and  _41
REMARK   14  A    between atoms: _40  and  _43
REMARK   15  A    between atoms: _43  and  _44
REMARK   16  A    between atoms: _44  and  _46
REMARK   17  A    between atoms: _46  and  ZN_355
REMARK   18  A    between atoms: _47  and  _49
REMARK   19  A    between atoms: _49  and  _50
REMARK   20  A    between atoms: _49  and  _52
REMARK   21  A    between atoms: _52  and  _53
REMARK   22  A    between atoms: _59  and  _61
REMARK   23  A    between atoms: _61  and  _62
REMARK   24  A    between atoms: _61  and  _64
REMARK   25  A    between atoms: _64  and  _65
REMARK   26  A    between atoms: _70  and  _71
REMARK   27  A    between atoms: _74  and  _75
REMARK   28  A    between atoms: _80  and  _82
REMARK   29  A    between atoms: _82  and  _83
REMARK   30  A    between atoms: _82  and  _85
REMARK   31  A    between atoms: _85  and  _86
REMARK   32  A    between atoms: _92  and  _94
REMARK   33  A    between atoms: _94  and  _95
REMARK   34  A    between atoms: _94  and  _97
REMARK   35  A    between atoms: _100  and  _102
REMARK   36  A    between atoms: _102  and  _103
REMARK   37  A    between atoms: _102  and  _105
REMARK   38  A    between atoms: _105  and  _106
REMARK   39  A    between atoms: _109  and  _111
REMARK   40  A    between atoms: _111  and  _112
REMARK   41  A    between atoms: _117  and  _118
REMARK   42  A    between atoms: _117  and  _120
REMARK   43  A    between atoms: _120  and  _121
REMARK   44  A    between atoms: _125  and  ZN_355
REMARK   45  A    between atoms: _126  and  _128
REMARK   46  A    between atoms: _128  and  _129
REMARK   47  A    between atoms: _132  and  _134
REMARK   48  A    between atoms: _134  and  _135
REMARK   49  A    between atoms: _134  and  _137
REMARK   50  A    between atoms: _137  and  _138
REMARK   51  A    between atoms: _143  and  _144
REMARK   52  A    between atoms: _146  and  _148
REMARK   53  A    between atoms: _148  and  _149
REMARK   54  A    between atoms: _153  and  _154
REMARK   55  A    between atoms: _159  and  _161
REMARK   56  A    between atoms: _161  and  _162
REMARK   57  A    between atoms: _161  and  _164
REMARK   58  A    between atoms: _164  and  _165
REMARK   59  A    between atoms: _168  and  _170
REMARK   60  A    between atoms: _170  and  _171
REMARK   61  A    between atoms: _170  and  _173
REMARK   62  A    between atoms: _173  and  _174
REMARK   63  A    between atoms: _179  and  _181
REMARK   64  A    between atoms: _181  and  _182
REMARK   65  A    between atoms: _184  and  _186
REMARK   66  A    between atoms: _186  and  _187
REMARK   67  A    between atoms: _186  and  _189
REMARK   68  A    between atoms: _189  and  _190
REMARK   69  A    between atoms: _193  and  _195
REMARK   70  A    between atoms: _195  and  _196
REMARK   71  A    between atoms: _199  and  _201
REMARK   72  A    between atoms: _201  and  _202
REMARK   73  A    between atoms: _201  and  _204
REMARK   74  A    between atoms: _204  and  _205
REMARK   75  A    between atoms: _206  and  ZN_355
REMARK   76  A    between atoms: _210  and  _212
REMARK   77  A    between atoms: _212  and  _213
REMARK   78  A    between atoms: _212  and  _215
REMARK   79  A    between atoms: _218  and  _220
REMARK   80  A    between atoms: _220  and  _221
REMARK   81  A    between atoms: _220  and  _223
REMARK   82  A    between atoms: _223  and  _224
REMARK   83  A    between atoms: _228  and  ZN_354
REMARK   84  A    between atoms: _229  and  _231
REMARK   85  A    between atoms: _231  and  _232
REMARK   86  A    between atoms: _231  and  _234
REMARK   87  A    between atoms: _234  and  _235
REMARK   88  A    between atoms: _235  and  _236
REMARK   89  A    between atoms: _239  and  _241
REMARK   90  A    between atoms: _241  and  _242
REMARK   91  A    between atoms: _241  and  _244
REMARK   92  A    between atoms: _244  and  _245
REMARK   93  A    between atoms: _248  and  _250
REMARK   94  A    between atoms: _250  and  _251
REMARK   95  A    between atoms: _250  and  _253
REMARK   96  A    between atoms: _253  and  _254
REMARK   97  A    between atoms: _258  and  ZN_354
REMARK   98  A    between atoms: _259  and  _261
REMARK   99  A    between atoms: _261  and  _262
REMARK  100  A    between atoms: _261  and  _264
REMARK  101  A    between atoms: _264  and  _265
REMARK  102  A    between atoms: _267  and  _269
REMARK  103  A    between atoms: _269  and  _270
REMARK  104  A    between atoms: _269  and  _272
REMARK  105  A    between atoms: _272  and  _273
REMARK  106  A    between atoms: _276  and  _278
REMARK  107  A    between atoms: _278  and  _279
REMARK  108  A    between atoms: _278  and  _281
REMARK  109  A    between atoms: _281  and  _282
REMARK  110  A    between atoms: _288  and  _290
REMARK  111  A    between atoms: _290  and  _291
REMARK  112  A    between atoms: _290  and  _293
REMARK  113  A    between atoms: _293  and  _294
REMARK  114  A    between atoms: _298  and  ZN_354
REMARK  115  A    between atoms: _299  and  _301
REMARK  116  A    between atoms: _301  and  _302
REMARK  117  A    between atoms: _301  and  _304
REMARK  118  A    between atoms: _304  and  _305
REMARK  119  A    between atoms: _305  and  _306
REMARK  120  A    between atoms: _308  and  _310
REMARK  121  A    between atoms: _310  and  _311
REMARK  122  A    between atoms: _310  and  _313
REMARK  123  A    between atoms: _313  and  _314
REMARK  124  A    between atoms: _319  and  _320
REMARK  125  A    between atoms: _323  and  _324
REMARK  126  A    between atoms: _329  and  _331
REMARK  127  A    between atoms: _331  and  _332
REMARK  128  A    between atoms: _331  and  _334
REMARK  129  A    between atoms: _334  and  _335
REMARK  130  A    between atoms: _340  and  _341
REMARK  131  A    between atoms: _343  and  _345
REMARK  132  A    between atoms: _345  and  _346
REMARK  133  A    between atoms: _345  and  _348
REMARK  134  A    between atoms: _348  and  _349
REMARK                            x       y       z     vdW  Elec       q    Type
REMARK                         _______ _______ _______ _____ _____    ______ ____
ROOT
ATOM      1  O   HOH     1      31.183  54.387  50.119  0.00  0.00    +0.000 OA
ENDROOT
TORSDOF 0
REMARK  Name = ../refined-set-2016/1usn/1usn_pocket.pdb
REMARK  134 active torsions:
REMARK  status: ('A' for Active; 'I' for Inactive)
REMARK    1  A    between atoms: _1  and  _3
REMARK    2  A    between atoms: _3  and  _4
REMARK    3  A    between atoms: _3  and  _6
REMARK    4  A    between atoms: _6  and  _7
REMARK    5  A    between atoms: _14  and  _15
REMARK    6  A    between atoms: _21  and  _22
REMARK    7  A    between atoms: _27  and  _29
REMARK    8  A    between atoms: _29  and  _30
REMARK    9  A    between atoms: _29  and  _32
REMARK   10  A    between atoms: _32  and  _33
REMARK   11  A    between atoms: _37  and  ZN_355
REMARK   12  A    between atoms: _38  and  _40
REMARK   13  A    between atoms: _40  and  _41
REMARK   14  A    between atoms: _40  and  _43
REMARK   15  A    between atoms: _43  and  _44
REMARK   16  A    between atoms: _44  and  _46
REMARK   17  A    between atoms: _46  and  ZN_355
REMARK   18  A    between atoms: _47  and  _49
REMARK   19  A    between atoms: _49  and  _50
REMARK   20  A    between atoms: _49  and  _52
REMARK   21  A    between atoms: _52  and  _53
REMARK   22  A    between atoms: _59  and  _61
REMARK   23  A    between atoms: _61  and  _62
REMARK   24  A    between atoms: _61  and  _64
REMARK   25  A    between atoms: _64  and  _65
REMARK   26  A    between atoms: _70  and  _71
REMARK   27  A    between atoms: _74  and  _75
REMARK   28  A    between atoms: _80  and  _82
REMARK   29  A    between atoms: _82  and  _83
REMARK   30  A    between atoms: _82  and  _85
REMARK   31  A    between atoms: _85  and  _86
REMARK   32  A    between atoms: _92  and  _94
REMARK   33  A    between atoms: _94  and  _95
REMARK   34  A    between atoms: _94  and  _97
REMARK   35  A    between atoms: _100  and  _102
REMARK   36  A    between atoms: _102  and  _103
REMARK   37  A    between atoms: _102  and  _105
REMARK   38  A    between atoms: _105  and  _106
REMARK   39  A    between atoms: _109  and  _111
REMARK   40  A    between atoms: _111  and  _112
REMARK   41  A    between atoms: _117  and  _118
REMARK   42  A    between atoms: _117  and  _120
REMARK   43  A    between atoms: _120  and  _121
REMARK   44  A    between atoms: _125  and  ZN_355
REMARK   45  A    between atoms: _126  and  _128
REMARK   46  A    between atoms: _128  and  _129
REMARK   47  A    between atoms: _132  and  _134
REMARK   48  A    between atoms: _134  and  _135
REMARK   49  A    between atoms: _134  and  _137
REMARK   50  A    between atoms: _137  and  _138
REMARK   51  A    between atoms: _143  and  _144
REMARK   52  A    between atoms: _146  and  _148
REMARK   53  A    between atoms: _148  and  _149
REMARK   54  A    between atoms: _153  and  _154
REMARK   55  A    between atoms: _159  and  _161
REMARK   56  A    between atoms: _161  and  _162
REMARK   57  A    between atoms: _161  and  _164
REMARK   58  A    between atoms: _164  and  _165
REMARK   59  A    between atoms: _168  and  _170
REMARK   60  A    between atoms: _170  and  _171
REMARK   61  A    between atoms: _170  and  _173
REMARK   62  A    between atoms: _173  and  _174
REMARK   63  A    between atoms: _179  and  _181
REMARK   64  A    between atoms: _181  and  _182
REMARK   65  A    between atoms: _184  and  _186
REMARK   66  A    between atoms: _186  and  _187
REMARK   67  A    between atoms: _186  and  _189
REMARK   68  A    between atoms: _189  and  _190
REMARK   69  A    between atoms: _193  and  _195
REMARK   70  A    between atoms: _195  and  _196
REMARK   71  A    between atoms: _199  and  _201
REMARK   72  A    between atoms: _201  and  _202
REMARK   73  A    between atoms: _201  and  _204
REMARK   74  A    between atoms: _204  and  _205
REMARK   75  A    between atoms: _206  and  ZN_355
REMARK   76  A    between atoms: _210  and  _212
REMARK   77  A    between atoms: _212  and  _213
REMARK   78  A    between atoms: _212  and  _215
REMARK   79  A    between atoms: _218  and  _220
REMARK   80  A    between atoms: _220  and  _221
REMARK   81  A    between atoms: _220  and  _223
REMARK   82  A    between atoms: _223  and  _224
REMARK   83  A    between atoms: _228  and  ZN_354
REMARK   84  A    between atoms: _229  and  _231
REMARK   85  A    between atoms: _231  and  _232
REMARK   86  A    between atoms: _231  and  _234
REMARK   87  A    between atoms: _234  and  _235
REMARK   88  A    between atoms: _235  and  _236
REMARK   89  A    between atoms: _239  and  _241
REMARK   90  A    between atoms: _241  and  _242
REMARK   91  A    between atoms: _241  and  _244
REMARK   92  A    between atoms: _244  and  _245
REMARK   93  A    between atoms: _248  and  _250
REMARK   94  A    between atoms: _250  and  _251
REMARK   95  A    between atoms: _250  and  _253
REMARK   96  A    between atoms: _253  and  _254
REMARK   97  A    between atoms: _258  and  ZN_354
REMARK   98  A    between atoms: _259  and  _261
REMARK   99  A    between atoms: _261  and  _262
REMARK  100  A    between atoms: _261  and  _264
REMARK  101  A    between atoms: _264  and  _265
REMARK  102  A    between atoms: _267  and  _269
REMARK  103  A    between atoms: _269  and  _270
REMARK  104  A    between atoms: _269  and  _272
REMARK  105  A    between atoms: _272  and  _273
REMARK  106  A    between atoms: _276  and  _278
REMARK  107  A    between atoms: _278  and  _279
REMARK  108  A    between atoms: _278  and  _281
REMARK  109  A    between atoms: _281  and  _282
REMARK  110  A    between atoms: _288  and  _290
REMARK  111  A    between atoms: _290  and  _291
REMARK  112  A    between atoms: _290  and  _293
REMARK  113  A    between atoms: _293  and  _294
REMARK  114  A    between atoms: _298  and  ZN_354
REMARK  115  A    between atoms: _299  and  _301
REMARK  116  A    between atoms: _301  and  _302
REMARK  117  A    between atoms: _301  and  _304
REMARK  118  A    between atoms: _304  and  _305
REMARK  119  A    between atoms: _305  and  _306
REMARK  120  A    between atoms: _308  and  _310
REMARK  121  A    between atoms: _310  and  _311
REMARK  122  A    between atoms: _310  and  _313
REMARK  123  A    between atoms: _313  and  _314
REMARK  124  A    between atoms: _319  and  _320
REMARK  125  A    between atoms: _323  and  _324
REMARK  126  A    between atoms: _329  and  _331
REMARK  127  A    between atoms: _331  and  _332
REMARK  128  A    between atoms: _331  and  _334
REMARK  129  A    between atoms: _334  and  _335
REMARK  130  A    between atoms: _340  and  _341
REMARK  131  A    between atoms: _343  and  _345
REMARK  132  A    between atoms: _345  and  _346
REMARK  133  A    between atoms: _345  and  _348
REMARK  134  A    between atoms: _348  and  _349
REMARK                            x       y       z     vdW  Elec       q    Type
REMARK                         _______ _______ _______ _____ _____    ______ ____
ROOT
ATOM      1  O   HOH     1      25.949  48.946  49.780  0.00  0.00    +0.000 OA
ENDROOT
TORSDOF 0
REMARK  Name = ../refined-set-2016/1usn/1usn_pocket.pdb
REMARK  134 active torsions:
REMARK  status: ('A' for Active; 'I' for Inactive)
REMARK    1  A    between atoms: _1  and  _3
REMARK    2  A    between atoms: _3  and  _4
REMARK    3  A    between atoms: _3  and  _6
REMARK    4  A    between atoms: _6  and  _7
REMARK    5  A    between atoms: _14  and  _15
REMARK    6  A    between atoms: _21  and  _22
REMARK    7  A    between atoms: _27  and  _29
REMARK    8  A    between atoms: _29  and  _30
REMARK    9  A    between atoms: _29  and  _32
REMARK   10  A    between atoms: _32  and  _33
REMARK   11  A    between atoms: _37  and  ZN_355
REMARK   12  A    between atoms: _38  and  _40
REMARK   13  A    between atoms: _40  and  _41
REMARK   14  A    between atoms: _40  and  _43
REMARK   15  A    between atoms: _43  and  _44
REMARK   16  A    between atoms: _44  and  _46
REMARK   17  A    between atoms: _46  and  ZN_355
REMARK   18  A    between atoms: _47  and  _49
REMARK   19  A    between atoms: _49  and  _50
REMARK   20  A    between atoms: _49  and  _52
REMARK   21  A    between atoms: _52  and  _53
REMARK   22  A    between atoms: _59  and  _61
REMARK   23  A    between atoms: _61  and  _62
REMARK   24  A    between atoms: _61  and  _64
REMARK   25  A    between atoms: _64  and  _65
REMARK   26  A    between atoms: _70  and  _71
REMARK   27  A    between atoms: _74  and  _75
REMARK   28  A    between atoms: _80  and  _82
REMARK   29  A    between atoms: _82  and  _83
REMARK   30  A    between atoms: _82  and  _85
REMARK   31  A    between atoms: _85  and  _86
REMARK   32  A    between atoms: _92  and  _94
REMARK   33  A    between atoms: _94  and  _95
REMARK   34  A    between atoms: _94  and  _97
REMARK   35  A    between atoms: _100  and  _102
REMARK   36  A    between atoms: _102  and  _103
REMARK   37  A    between atoms: _102  and  _105
REMARK   38  A    between atoms: _105  and  _106
REMARK   39  A    between atoms: _109  and  _111
REMARK   40  A    between atoms: _111  and  _112
REMARK   41  A    between atoms: _117  and  _118
REMARK   42  A    between atoms: _117  and  _120
REMARK   43  A    between atoms: _120  and  _121
REMARK   44  A    between atoms: _125  and  ZN_355
REMARK   45  A    between atoms: _126  and  _128
REMARK   46  A    between atoms: _128  and  _129
REMARK   47  A    between atoms: _132  and  _134
REMARK   48  A    between atoms: _134  and  _135
REMARK   49  A    between atoms: _134  and  _137
REMARK   50  A    between atoms: _137  and  _138
REMARK   51  A    between atoms: _143  and  _144
REMARK   52  A    between atoms: _146  and  _148
REMARK   53  A    between atoms: _148  and  _149
REMARK   54  A    between atoms: _153  and  _154
REMARK   55  A    between atoms: _159  and  _161
REMARK   56  A    between atoms: _161  and  _162
REMARK   57  A    between atoms: _161  and  _164
REMARK   58  A    between atoms: _164  and  _165
REMARK   59  A    between atoms: _168  and  _170
REMARK   60  A    between atoms: _170  and  _171
REMARK   61  A    between atoms: _170  and  _173
REMARK   62  A    between atoms: _173  and  _174
REMARK   63  A    between atoms: _179  and  _181
REMARK   64  A    between atoms: _181  and  _182
REMARK   65  A    between atoms: _184  and  _186
REMARK   66  A    between atoms: _186  and  _187
REMARK   67  A    between atoms: _186  and  _189
REMARK   68  A    between atoms: _189  and  _190
REMARK   69  A    between atoms: _193  and  _195
REMARK   70  A    between atoms: _195  and  _196
REMARK   71  A    between atoms: _199  and  _201
REMARK   72  A    between atoms: _201  and  _202
REMARK   73  A    between atoms: _201  and  _204
REMARK   74  A    between atoms: _204  and  _205
REMARK   75  A    between atoms: _206  and  ZN_355
REMARK   76  A    between atoms: _210  and  _212
REMARK   77  A    between atoms: _212  and  _213
REMARK   78  A    between atoms: _212  and  _215
REMARK   79  A    between atoms: _218  and  _220
REMARK   80  A    between atoms: _220  and  _221
REMARK   81  A    between atoms: _220  and  _223
REMARK   82  A    between atoms: _223  and  _224
REMARK   83  A    between atoms: _228  and  ZN_354
REMARK   84  A    between atoms: _229  and  _231
REMARK   85  A    between atoms: _231  and  _232
REMARK   86  A    between atoms: _231  and  _234
REMARK   87  A    between atoms: _234  and  _235
REMARK   88  A    between atoms: _235  and  _236
REMARK   89  A    between atoms: _239  and  _241
REMARK   90  A    between atoms: _241  and  _242
REMARK   91  A    between atoms: _241  and  _244
REMARK   92  A    between atoms: _244  and  _245
REMARK   93  A    between atoms: _248  and  _250
REMARK   94  A    between atoms: _250  and  _251
REMARK   95  A    between atoms: _250  and  _253
REMARK   96  A    between atoms: _253  and  _254
REMARK   97  A    between atoms: _258  and  ZN_354
REMARK   98  A    between atoms: _259  and  _261
REMARK   99  A    between atoms: _261  and  _262
REMARK  100  A    between atoms: _261  and  _264
REMARK  101  A    between atoms: _264  and  _265
REMARK  102  A    between atoms: _267  and  _269
REMARK  103  A    between atoms: _269  and  _270
REMARK  104  A    between atoms: _269  and  _272
REMARK  105  A    between atoms: _272  and  _273
REMARK  106  A    between atoms: _276  and  _278
REMARK  107  A    between atoms: _278  and  _279
REMARK  108  A    between atoms: _278  and  _281
REMARK  109  A    between atoms: _281  and  _282
REMARK  110  A    between atoms: _288  and  _290
REMARK  111  A    between atoms: _290  and  _291
REMARK  112  A    between atoms: _290  and  _293
REMARK  113  A    between atoms: _293  and  _294
REMARK  114  A    between atoms: _298  and  ZN_354
REMARK  115  A    between atoms: _299  and  _301
REMARK  116  A    between atoms: _301  and  _302
REMARK  117  A    between atoms: _301  and  _304
REMARK  118  A    between atoms: _304  and  _305
REMARK  119  A    between atoms: _305  and  _306
REMARK  120  A    between atoms: _308  and  _310
REMARK  121  A    between atoms: _310  and  _311
REMARK  122  A    between atoms: _310  and  _313
REMARK  123  A    between atoms: _313  and  _314
REMARK  124  A    between atoms: _319  and  _320
REMARK  125  A    between atoms: _323  and  _324
REMARK  126  A    between atoms: _329  and  _331
REMARK  127  A    between atoms: _331  and  _332
REMARK  128  A    between atoms: _331  and  _334
REMARK  129  A    between atoms: _334  and  _335
REMARK  130  A    between atoms: _340  and  _341
REMARK  131  A    between atoms: _343  and  _345
REMARK  132  A    between atoms: _345  and  _346
REMARK  133  A    between atoms: _345  and  _348
REMARK  134  A    between atoms: _348  and  _349
REMARK                            x       y       z     vdW  Elec       q    Type
REMARK                         _______ _______ _______ _____ _____    ______ ____
ROOT
ATOM      1  O   HOH     1      33.996  52.385  45.880  0.00  0.00    +0.000 OA
ENDROOT
TORSDOF 0
REMARK  Name = ../refined-set-2016/1usn/1usn_pocket.pdb
REMARK  134 active torsions:
REMARK  status: ('A' for Active; 'I' for Inactive)
REMARK    1  A    between atoms: _1  and  _3
REMARK    2  A    between atoms: _3  and  _4
REMARK    3  A    between atoms: _3  and  _6
REMARK    4  A    between atoms: _6  and  _7
REMARK    5  A    between atoms: _14  and  _15
REMARK    6  A    between atoms: _21  and  _22
REMARK    7  A    between atoms: _27  and  _29
REMARK    8  A    between atoms: _29  and  _30
REMARK    9  A    between atoms: _29  and  _32
REMARK   10  A    between atoms: _32  and  _33
REMARK   11  A    between atoms: _37  and  ZN_355
REMARK   12  A    between atoms: _38  and  _40
REMARK   13  A    between atoms: _40  and  _41
REMARK   14  A    between atoms: _40  and  _43
REMARK   15  A    between atoms: _43  and  _44
REMARK   16  A    between atoms: _44  and  _46
REMARK   17  A    between atoms: _46  and  ZN_355
REMARK   18  A    between atoms: _47  and  _49
REMARK   19  A    between atoms: _49  and  _50
REMARK   20  A    between atoms: _49  and  _52
REMARK   21  A    between atoms: _52  and  _53
REMARK   22  A    between atoms: _59  and  _61
REMARK   23  A    between atoms: _61  and  _62
REMARK   24  A    between atoms: _61  and  _64
REMARK   25  A    between atoms: _64  and  _65
REMARK   26  A    between atoms: _70  and  _71
REMARK   27  A    between atoms: _74  and  _75
REMARK   28  A    between atoms: _80  and  _82
REMARK   29  A    between atoms: _82  and  _83
REMARK   30  A    between atoms: _82  and  _85
REMARK   31  A    between atoms: _85  and  _86
REMARK   32  A    between atoms: _92  and  _94
REMARK   33  A    between atoms: _94  and  _95
REMARK   34  A    between atoms: _94  and  _97
REMARK   35  A    between atoms: _100  and  _102
REMARK   36  A    between atoms: _102  and  _103
REMARK   37  A    between atoms: _102  and  _105
REMARK   38  A    between atoms: _105  and  _106
REMARK   39  A    between atoms: _109  and  _111
REMARK   40  A    between atoms: _111  and  _112
REMARK   41  A    between atoms: _117  and  _118
REMARK   42  A    between atoms: _117  and  _120
REMARK   43  A    between atoms: _120  and  _121
REMARK   44  A    between atoms: _125  and  ZN_355
REMARK   45  A    between atoms: _126  and  _128
REMARK   46  A    between atoms: _128  and  _129
REMARK   47  A    between atoms: _132  and  _134
REMARK   48  A    between atoms: _134  and  _135
REMARK   49  A    between atoms: _134  and  _137
REMARK   50  A    between atoms: _137  and  _138
REMARK   51  A    between atoms: _143  and  _144
REMARK   52  A    between atoms: _146  and  _148
REMARK   53  A    between atoms: _148  and  _149
REMARK   54  A    between atoms: _153  and  _154
REMARK   55  A    between atoms: _159  and  _161
REMARK   56  A    between atoms: _161  and  _162
REMARK   57  A    between atoms: _161  and  _164
REMARK   58  A    between atoms: _164  and  _165
REMARK   59  A    between atoms: _168  and  _170
REMARK   60  A    between atoms: _170  and  _171
REMARK   61  A    between atoms: _170  and  _173
REMARK   62  A    between atoms: _173  and  _174
REMARK   63  A    between atoms: _179  and  _181
REMARK   64  A    between atoms: _181  and  _182
REMARK   65  A    between atoms: _184  and  _186
REMARK   66  A    between atoms: _186  and  _187
REMARK   67  A    between atoms: _186  and  _189
REMARK   68  A    between atoms: _189  and  _190
REMARK   69  A    between atoms: _193  and  _195
REMARK   70  A    between atoms: _195  and  _196
REMARK   71  A    between atoms: _199  and  _201
REMARK   72  A    between atoms: _201  and  _202
REMARK   73  A    between atoms: _201  and  _204
REMARK   74  A    between atoms: _204  and  _205
REMARK   75  A    between atoms: _206  and  ZN_355
REMARK   76  A    between atoms: _210  and  _212
REMARK   77  A    between atoms: _212  and  _213
REMARK   78  A    between atoms: _212  and  _215
REMARK   79  A    between atoms: _218  and  _220
REMARK   80  A    between atoms: _220  and  _221
REMARK   81  A    between atoms: _220  and  _223
REMARK   82  A    between atoms: _223  and  _224
REMARK   83  A    between atoms: _228  and  ZN_354
REMARK   84  A    between atoms: _229  and  _231
REMARK   85  A    between atoms: _231  and  _232
REMARK   86  A    between atoms: _231  and  _234
REMARK   87  A    between atoms: _234  and  _235
REMARK   88  A    between atoms: _235  and  _236
REMARK   89  A    between atoms: _239  and  _241
REMARK   90  A    between atoms: _241  and  _242
REMARK   91  A    between atoms: _241  and  _244
REMARK   92  A    between atoms: _244  and  _245
REMARK   93  A    between atoms: _248  and  _250
REMARK   94  A    between atoms: _250  and  _251
REMARK   95  A    between atoms: _250  and  _253
REMARK   96  A    between atoms: _253  and  _254
REMARK   97  A    between atoms: _258  and  ZN_354
REMARK   98  A    between atoms: _259  and  _261
REMARK   99  A    between atoms: _261  and  _262
REMARK  100  A    between atoms: _261  and  _264
REMARK  101  A    between atoms: _264  and  _265
REMARK  102  A    between atoms: _267  and  _269
REMARK  103  A    between atoms: _269  and  _270
REMARK  104  A    between atoms: _269  and  _272
REMARK  105  A    between atoms: _272  and  _273
REMARK  106  A    between atoms: _276  and  _278
REMARK  107  A    between atoms: _278  and  _279
REMARK  108  A    between atoms: _278  and  _281
REMARK  109  A    between atoms: _281  and  _282
REMARK  110  A    between atoms: _288  and  _290
REMARK  111  A    between atoms: _290  and  _291
REMARK  112  A    between atoms: _290  and  _293
REMARK  113  A    between atoms: _293  and  _294
REMARK  114  A    between atoms: _298  and  ZN_354
REMARK  115  A    between atoms: _299  and  _301
REMARK  116  A    between atoms: _301  and  _302
REMARK  117  A    between atoms: _301  and  _304
REMARK  118  A    between atoms: _304  and  _305
REMARK  119  A    between atoms: _305  and  _306
REMARK  120  A    between atoms: _308  and  _310
REMARK  121  A    between atoms: _310  and  _311
REMARK  122  A    between atoms: _310  and  _313
REMARK  123  A    between atoms: _313  and  _314
REMARK  124  A    between atoms: _319  and  _320
REMARK  125  A    between atoms: _323  and  _324
REMARK  126  A    between atoms: _329  and  _331
REMARK  127  A    between atoms: _331  and  _332
REMARK  128  A    between atoms: _331  and  _334
REMARK  129  A    between atoms: _334  and  _335
REMARK  130  A    between atoms: _340  and  _341
REMARK  131  A    between atoms: _343  and  _345
REMARK  132  A    between atoms: _345  and  _346
REMARK  133  A    between atoms: _345  and  _348
REMARK  134  A    between atoms: _348  and  _349
REMARK                            x       y       z     vdW  Elec       q    Type
REMARK                         _______ _______ _______ _____ _____    ______ ____
ROOT
ATOM      1  O   HOH     1      33.798  56.822  50.224  0.00  0.00    +0.000 OA
ENDROOT
TORSDOF 0
REMARK  Name = ../refined-set-2016/1usn/1usn_pocket.pdb
REMARK  134 active torsions:
REMARK  status: ('A' for Active; 'I' for Inactive)
REMARK    1  A    between atoms: _1  and  _3
REMARK    2  A    between atoms: _3  and  _4
REMARK    3  A    between atoms: _3  and  _6
REMARK    4  A    between atoms: _6  and  _7
REMARK    5  A    between atoms: _14  and  _15
REMARK    6  A    between atoms: _21  and  _22
REMARK    7  A    between atoms: _27  and  _29
REMARK    8  A    between atoms: _29  and  _30
REMARK    9  A    between atoms: _29  and  _32
REMARK   10  A    between atoms: _32  and  _33
REMARK   11  A    between atoms: _37  and  ZN_355
REMARK   12  A    between atoms: _38  and  _40
REMARK   13  A    between atoms: _40  and  _41
REMARK   14  A    between atoms: _40  and  _43
REMARK   15  A    between atoms: _43  and  _44
REMARK   16  A    between atoms: _44  and  _46
REMARK   17  A    between atoms: _46  and  ZN_355
REMARK   18  A    between atoms: _47  and  _49
REMARK   19  A    between atoms: _49  and  _50
REMARK   20  A    between atoms: _49  and  _52
REMARK   21  A    between atoms: _52  and  _53
REMARK   22  A    between atoms: _59  and  _61
REMARK   23  A    between atoms: _61  and  _62
REMARK   24  A    between atoms: _61  and  _64
REMARK   25  A    between atoms: _64  and  _65
REMARK   26  A    between atoms: _70  and  _71
REMARK   27  A    between atoms: _74  and  _75
REMARK   28  A    between atoms: _80  and  _82
REMARK   29  A    between atoms: _82  and  _83
REMARK   30  A    between atoms: _82  and  _85
REMARK   31  A    between atoms: _85  and  _86
REMARK   32  A    between atoms: _92  and  _94
REMARK   33  A    between atoms: _94  and  _95
REMARK   34  A    between atoms: _94  and  _97
REMARK   35  A    between atoms: _100  and  _102
REMARK   36  A    between atoms: _102  and  _103
REMARK   37  A    between atoms: _102  and  _105
REMARK   38  A    between atoms: _105  and  _106
REMARK   39  A    between atoms: _109  and  _111
REMARK   40  A    between atoms: _111  and  _112
REMARK   41  A    between atoms: _117  and  _118
REMARK   42  A    between atoms: _117  and  _120
REMARK   43  A    between atoms: _120  and  _121
REMARK   44  A    between atoms: _125  and  ZN_355
REMARK   45  A    between atoms: _126  and  _128
REMARK   46  A    between atoms: _128  and  _129
REMARK   47  A    between atoms: _132  and  _134
REMARK   48  A    between atoms: _134  and  _135
REMARK   49  A    between atoms: _134  and  _137
REMARK   50  A    between atoms: _137  and  _138
REMARK   51  A    between atoms: _143  and  _144
REMARK   52  A    between atoms: _146  and  _148
REMARK   53  A    between atoms: _148  and  _149
REMARK   54  A    between atoms: _153  and  _154
REMARK   55  A    between atoms: _159  and  _161
REMARK   56  A    between atoms: _161  and  _162
REMARK   57  A    between atoms: _161  and  _164
REMARK   58  A    between atoms: _164  and  _165
REMARK   59  A    between atoms: _168  and  _170
REMARK   60  A    between atoms: _170  and  _171
REMARK   61  A    between atoms: _170  and  _173
REMARK   62  A    between atoms: _173  and  _174
REMARK   63  A    between atoms: _179  and  _181
REMARK   64  A    between atoms: _181  and  _182
REMARK   65  A    between atoms: _184  and  _186
REMARK   66  A    between atoms: _186  and  _187
REMARK   67  A    between atoms: _186  and  _189
REMARK   68  A    between atoms: _189  and  _190
REMARK   69  A    between atoms: _193  and  _195
REMARK   70  A    between atoms: _195  and  _196
REMARK   71  A    between atoms: _199  and  _201
REMARK   72  A    between atoms: _201  and  _202
REMARK   73  A    between atoms: _201  and  _204
REMARK   74  A    between atoms: _204  and  _205
REMARK   75  A    between atoms: _206  and  ZN_355
REMARK   76  A    between atoms: _210  and  _212
REMARK   77  A    between atoms: _212  and  _213
REMARK   78  A    between atoms: _212  and  _215
REMARK   79  A    between atoms: _218  and  _220
REMARK   80  A    between atoms: _220  and  _221
REMARK   81  A    between atoms: _220  and  _223
REMARK   82  A    between atoms: _223  and  _224
REMARK   83  A    between atoms: _228  and  ZN_354
REMARK   84  A    between atoms: _229  and  _231
REMARK   85  A    between atoms: _231  and  _232
REMARK   86  A    between atoms: _231  and  _234
REMARK   87  A    between atoms: _234  and  _235
REMARK   88  A    between atoms: _235  and  _236
REMARK   89  A    between atoms: _239  and  _241
REMARK   90  A    between atoms: _241  and  _242
REMARK   91  A    between atoms: _241  and  _244
REMARK   92  A    between atoms: _244  and  _245
REMARK   93  A    between atoms: _248  and  _250
REMARK   94  A    between atoms: _250  and  _251
REMARK   95  A    between atoms: _250  and  _253
REMARK   96  A    between atoms: _253  and  _254
REMARK   97  A    between atoms: _258  and  ZN_354
REMARK   98  A    between atoms: _259  and  _261
REMARK   99  A    between atoms: _261  and  _262
REMARK  100  A    between atoms: _261  and  _264
REMARK  101  A    between atoms: _264  and  _265
REMARK  102  A    between atoms: _267  and  _269
REMARK  103  A    between atoms: _269  and  _270
REMARK  104  A    between atoms: _269  and  _272
REMARK  105  A    between atoms: _272  and  _273
REMARK  106  A    between atoms: _276  and  _278
REMARK  107  A    between atoms: _278  and  _279
REMARK  108  A    between atoms: _278  and  _281
REMARK  109  A    between atoms: _281  and  _282
REMARK  110  A    between atoms: _288  and  _290
REMARK  111  A    between atoms: _290  and  _291
REMARK  112  A    between atoms: _290  and  _293
REMARK  113  A    between atoms: _293  and  _294
REMARK  114  A    between atoms: _298  and  ZN_354
REMARK  115  A    between atoms: _299  and  _301
REMARK  116  A    between atoms: _301  and  _302
REMARK  117  A    between atoms: _301  and  _304
REMARK  118  A    between atoms: _304  and  _305
REMARK  119  A    between atoms: _305  and  _306
REMARK  120  A    between atoms: _308  and  _310
REMARK  121  A    between atoms: _310  and  _311
REMARK  122  A    between atoms: _310  and  _313
REMARK  123  A    between atoms: _313  and  _314
REMARK  124  A    between atoms: _319  and  _320
REMARK  125  A    between atoms: _323  and  _324
REMARK  126  A    between atoms: _329  and  _331
REMARK  127  A    between atoms: _331  and  _332
REMARK  128  A    between atoms: _331  and  _334
REMARK  129  A    between atoms: _334  and  _335
REMARK  130  A    between atoms: _340  and  _341
REMARK  131  A    between atoms: _343  and  _345
REMARK  132  A    between atoms: _345  and  _346
REMARK  133  A    between atoms: _345  and  _348
REMARK  134  A    between atoms: _348  and  _349
REMARK                            x       y       z     vdW  Elec       q    Type
REMARK                         _______ _______ _______ _____ _____    ______ ____
ROOT
ATOM      1  O   HOH     1      22.827  45.596  50.903  0.00  0.00    +0.000 OA
ENDROOT
TORSDOF 0
