REMARK  Name = ../refined-set-2016/1ie9/1ie9_pocket.pdb
REMARK  287 active torsions:
REMARK  status: ('A' for Active; 'I' for Inactive)
REMARK    1  A    between atoms: _1  and  _3
REMARK    2  A    between atoms: _3  and  _4
REMARK    3  A    between atoms: _3  and  _6
REMARK    4  A    between atoms: _6  and  _7
REMARK    5  A    between atoms: _10  and  _12
REMARK    6  A    between atoms: _12  and  _13
REMARK    7  A    between atoms: _12  and  _15
REMARK    8  A    between atoms: _15  and  _16
REMARK    9  A    between atoms: _21  and  _22
REMARK   10  A    between atoms: _24  and  _26
REMARK   11  A    between atoms: _26  and  _27
REMARK   12  A    between atoms: _26  and  _29
REMARK   13  A    between atoms: _29  and  _30
REMARK   14  A    between atoms: _34  and  _35
REMARK   15  A    between atoms: _40  and  _42
REMARK   16  A    between atoms: _42  and  _43
REMARK   17  A    between atoms: _42  and  _45
REMARK   18  A    between atoms: _45  and  _46
REMARK   19  A    between atoms: _51  and  _52
REMARK   20  A    between atoms: _54  and  _56
REMARK   21  A    between atoms: _56  and  _57
REMARK   22  A    between atoms: _56  and  _59
REMARK   23  A    between atoms: _59  and  _60
REMARK   24  A    between atoms: _66  and  _68
REMARK   25  A    between atoms: _68  and  _69
REMARK   26  A    between atoms: _68  and  _71
REMARK   27  A    between atoms: _71  and  _72
REMARK   28  A    between atoms: _78  and  _80
REMARK   29  A    between atoms: _80  and  _81
REMARK   30  A    between atoms: _80  and  _83
REMARK   31  A    between atoms: _83  and  _84
REMARK   32  A    between atoms: _84  and  _85
REMARK   33  A    between atoms: _85  and  _86
REMARK   34  A    between atoms: _95  and  _97
REMARK   35  A    between atoms: _97  and  _98
REMARK   36  A    between atoms: _97  and  _100
REMARK   37  A    between atoms: _100  and  _101
REMARK   38  A    between atoms: _104  and  _106
REMARK   39  A    between atoms: _106  and  _107
REMARK   40  A    between atoms: _106  and  _109
REMARK   41  A    between atoms: _109  and  _110
REMARK   42  A    between atoms: _110  and  _111
REMARK   43  A    between atoms: _113  and  _115
REMARK   44  A    between atoms: _115  and  _116
REMARK   45  A    between atoms: _115  and  _118
REMARK   46  A    between atoms: _118  and  _119
REMARK   47  A    between atoms: _123  and  _124
REMARK   48  A    between atoms: _129  and  _131
REMARK   49  A    between atoms: _131  and  _132
REMARK   50  A    between atoms: _131  and  _134
REMARK   51  A    between atoms: _134  and  _135
REMARK   52  A    between atoms: _140  and  _142
REMARK   53  A    between atoms: _142  and  _143
REMARK   54  A    between atoms: _142  and  _145
REMARK   55  A    between atoms: _145  and  _146
REMARK   56  A    between atoms: _149  and  _151
REMARK   57  A    between atoms: _151  and  _152
REMARK   58  A    between atoms: _155  and  _157
REMARK   59  A    between atoms: _157  and  _158
REMARK   60  A    between atoms: _157  and  _160
REMARK   61  A    between atoms: _160  and  _161
REMARK   62  A    between atoms: _164  and  _166
REMARK   63  A    between atoms: _166  and  _167
REMARK   64  A    between atoms: _166  and  _169
REMARK   65  A    between atoms: _169  and  _170
REMARK   66  A    between atoms: _173  and  _175
REMARK   67  A    between atoms: _175  and  _176
REMARK   68  A    between atoms: _175  and  _178
REMARK   69  A    between atoms: _181  and  _183
REMARK   70  A    between atoms: _183  and  _184
REMARK   71  A    between atoms: _183  and  _186
REMARK   72  A    between atoms: _186  and  _187
REMARK   73  A    between atoms: _189  and  _191
REMARK   74  A    between atoms: _191  and  _192
REMARK   75  A    between atoms: _191  and  _194
REMARK   76  A    between atoms: _194  and  _195
REMARK   77  A    between atoms: _200  and  _201
REMARK   78  A    between atoms: _203  and  _205
REMARK   79  A    between atoms: _205  and  _206
REMARK   80  A    between atoms: _205  and  _208
REMARK   81  A    between atoms: _208  and  _209
REMARK   82  A    between atoms: _211  and  _213
REMARK   83  A    between atoms: _213  and  _214
REMARK   84  A    between atoms: _213  and  _216
REMARK   85  A    between atoms: _216  and  _217
REMARK   86  A    between atoms: _220  and  _222
REMARK   87  A    between atoms: _222  and  _223
REMARK   88  A    between atoms: _222  and  _225
REMARK   89  A    between atoms: _225  and  _226
REMARK   90  A    between atoms: _226  and  _227
REMARK   91  A    between atoms: _227  and  _228
REMARK   92  A    between atoms: _228  and  _229
REMARK   93  A    between atoms: _233  and  _235
REMARK   94  A    between atoms: _235  and  _236
REMARK   95  A    between atoms: _235  and  _238
REMARK   96  A    between atoms: _241  and  _243
REMARK   97  A    between atoms: _243  and  _244
REMARK   98  A    between atoms: _247  and  _249
REMARK   99  A    between atoms: _249  and  _250
REMARK  100  A    between atoms: _249  and  _252
REMARK  101  A    between atoms: _252  and  _253
REMARK  102  A    between atoms: _256  and  _258
REMARK  103  A    between atoms: _258  and  _259
REMARK  104  A    between atoms: _258  and  _261
REMARK  105  A    between atoms: _261  and  _262
REMARK  106  A    between atoms: _262  and  _263
REMARK  107  A    between atoms: _266  and  _268
REMARK  108  A    between atoms: _268  and  _269
REMARK  109  A    between atoms: _268  and  _271
REMARK  110  A    between atoms: _274  and  _276
REMARK  111  A    between atoms: _276  and  _277
REMARK  112  A    between atoms: _276  and  _279
REMARK  113  A    between atoms: _279  and  _280
REMARK  114  A    between atoms: _283  and  _285
REMARK  115  A    between atoms: _285  and  _286
REMARK  116  A    between atoms: _285  and  _288
REMARK  117  A    between atoms: _288  and  _289
REMARK  118  A    between atoms: _289  and  _290
REMARK  119  A    between atoms: _292  and  _294
REMARK  120  A    between atoms: _294  and  _295
REMARK  121  A    between atoms: _294  and  _297
REMARK  122  A    between atoms: _297  and  _298
REMARK  123  A    between atoms: _301  and  _303
REMARK  124  A    between atoms: _303  and  _304
REMARK  125  A    between atoms: _303  and  _306
REMARK  126  A    between atoms: _306  and  _307
REMARK  127  A    between atoms: _307  and  _308
REMARK  128  A    between atoms: _308  and  _309
REMARK  129  A    between atoms: _318  and  _320
REMARK  130  A    between atoms: _320  and  _321
REMARK  131  A    between atoms: _320  and  _323
REMARK  132  A    between atoms: _323  and  _324
REMARK  133  A    between atoms: _326  and  _328
REMARK  134  A    between atoms: _328  and  _329
REMARK  135  A    between atoms: _328  and  _331
REMARK  136  A    between atoms: _331  and  _332
REMARK  137  A    between atoms: _337  and  _339
REMARK  138  A    between atoms: _339  and  _340
REMARK  139  A    between atoms: _339  and  _342
REMARK  140  A    between atoms: _342  and  _343
REMARK  141  A    between atoms: _343  and  _344
REMARK  142  A    between atoms: _347  and  _349
REMARK  143  A    between atoms: _349  and  _350
REMARK  144  A    between atoms: _349  and  _352
REMARK  145  A    between atoms: _352  and  _353
REMARK  146  A    between atoms: _355  and  _357
REMARK  147  A    between atoms: _357  and  _358
REMARK  148  A    between atoms: _357  and  _360
REMARK  149  A    between atoms: _360  and  _361
REMARK  150  A    between atoms: _367  and  _369
REMARK  151  A    between atoms: _369  and  _370
REMARK  152  A    between atoms: _369  and  _372
REMARK  153  A    between atoms: _372  and  _373
REMARK  154  A    between atoms: _375  and  _377
REMARK  155  A    between atoms: _377  and  _378
REMARK  156  A    between atoms: _377  and  _380
REMARK  157  A    between atoms: _380  and  _381
REMARK  158  A    between atoms: _391  and  _393
REMARK  159  A    between atoms: _393  and  _394
REMARK  160  A    between atoms: _393  and  _396
REMARK  161  A    between atoms: _396  and  _397
REMARK  162  A    between atoms: _400  and  _402
REMARK  163  A    between atoms: _402  and  _403
REMARK  164  A    between atoms: _402  and  _405
REMARK  165  A    between atoms: _407  and  _409
REMARK  166  A    between atoms: _409  and  _410
REMARK  167  A    between atoms: _409  and  _412
REMARK  168  A    between atoms: _412  and  _413
REMARK  169  A    between atoms: _418  and  _419
REMARK  170  A    between atoms: _421  and  _423
REMARK  171  A    between atoms: _423  and  _424
REMARK  172  A    between atoms: _423  and  _426
REMARK  173  A    between atoms: _426  and  _427
REMARK  174  A    between atoms: _427  and  _428
REMARK  175  A    between atoms: _428  and  _429
REMARK  176  A    between atoms: _429  and  _430
REMARK  177  A    between atoms: _434  and  _436
REMARK  178  A    between atoms: _436  and  _437
REMARK  179  A    between atoms: _436  and  _439
REMARK  180  A    between atoms: _439  and  _440
REMARK  181  A    between atoms: _445  and  _446
REMARK  182  A    between atoms: _448  and  _450
REMARK  183  A    between atoms: _450  and  _451
REMARK  184  A    between atoms: _450  and  _453
REMARK  185  A    between atoms: _453  and  _454
REMARK  186  A    between atoms: _454  and  _455
REMARK  187  A    between atoms: _455  and  _456
REMARK  188  A    between atoms: _465  and  _467
REMARK  189  A    between atoms: _467  and  _468
REMARK  190  A    between atoms: _467  and  _470
REMARK  191  A    between atoms: _473  and  _475
REMARK  192  A    between atoms: _475  and  _476
REMARK  193  A    between atoms: _475  and  _478
REMARK  194  A    between atoms: _478  and  _479
REMARK  195  A    between atoms: _482  and  _484
REMARK  196  A    between atoms: _484  and  _485
REMARK  197  A    between atoms: _484  and  _487
REMARK  198  A    between atoms: _490  and  _492
REMARK  199  A    between atoms: _492  and  _493
REMARK  200  A    between atoms: _492  and  _495
REMARK  201  A    between atoms: _495  and  _496
REMARK  202  A    between atoms: _499  and  _501
REMARK  203  A    between atoms: _501  and  _502
REMARK  204  A    between atoms: _505  and  _507
REMARK  205  A    between atoms: _507  and  _508
REMARK  206  A    between atoms: _510  and  _512
REMARK  207  A    between atoms: _512  and  _513
REMARK  208  A    between atoms: _512  and  _515
REMARK  209  A    between atoms: _515  and  _516
REMARK  210  A    between atoms: _521  and  _523
REMARK  211  A    between atoms: _523  and  _524
REMARK  212  A    between atoms: _523  and  _526
REMARK  213  A    between atoms: _526  and  _527
REMARK  214  A    between atoms: _530  and  _532
REMARK  215  A    between atoms: _532  and  _533
REMARK  216  A    between atoms: _532  and  _535
REMARK  217  A    between atoms: _535  and  _536
REMARK  218  A    between atoms: _539  and  _541
REMARK  219  A    between atoms: _541  and  _542
REMARK  220  A    between atoms: _541  and  _544
REMARK  221  A    between atoms: _544  and  _545
REMARK  222  A    between atoms: _548  and  _550
REMARK  223  A    between atoms: _550  and  _551
REMARK  224  A    between atoms: _550  and  _553
REMARK  225  A    between atoms: _553  and  _554
REMARK  226  A    between atoms: _554  and  _555
REMARK  227  A    between atoms: _560  and  _562
REMARK  228  A    between atoms: _562  and  _563
REMARK  229  A    between atoms: _562  and  _565
REMARK  230  A    between atoms: _565  and  _566
REMARK  231  A    between atoms: _569  and  _571
REMARK  232  A    between atoms: _571  and  _572
REMARK  233  A    between atoms: _571  and  _574
REMARK  234  A    between atoms: _574  and  _575
REMARK  235  A    between atoms: _580  and  _582
REMARK  236  A    between atoms: _582  and  _583
REMARK  237  A    between atoms: _582  and  _585
REMARK  238  A    between atoms: _585  and  _586
REMARK  239  A    between atoms: _588  and  _590
REMARK  240  A    between atoms: _590  and  _591
REMARK  241  A    between atoms: _590  and  _593
REMARK  242  A    between atoms: _593  and  _594
REMARK  243  A    between atoms: _594  and  _595
REMARK  244  A    between atoms: _600  and  _602
REMARK  245  A    between atoms: _602  and  _603
REMARK  246  A    between atoms: _602  and  _605
REMARK  247  A    between atoms: _605  and  _606
REMARK  248  A    between atoms: _611  and  _612
REMARK  249  A    between atoms: _614  and  _616
REMARK  250  A    between atoms: _616  and  _617
REMARK  251  A    between atoms: _616  and  _619
REMARK  252  A    between atoms: _619  and  _620
REMARK  253  A    between atoms: _620  and  _621
REMARK  254  A    between atoms: _621  and  _622
REMARK  255  A    between atoms: _631  and  _633
REMARK  256  A    between atoms: _633  and  _634
REMARK  257  A    between atoms: _633  and  _636
REMARK  258  A    between atoms: _636  and  _637
REMARK  259  A    between atoms: _640  and  _642
REMARK  260  A    between atoms: _642  and  _643
REMARK  261  A    between atoms: _642  and  _645
REMARK  262  A    between atoms: _647  and  _649
REMARK  263  A    between atoms: _649  and  _650
REMARK  264  A    between atoms: _649  and  _652
REMARK  265  A    between atoms: _652  and  _653
REMARK  266  A    between atoms: _653  and  _654
REMARK  267  A    between atoms: _654  and  _655
REMARK  268  A    between atoms: _655  and  _656
REMARK  269  A    between atoms: _660  and  _662
REMARK  270  A    between atoms: _662  and  _663
REMARK  271  A    between atoms: _662  and  _665
REMARK  272  A    between atoms: _665  and  _666
REMARK  273  A    between atoms: _669  and  _671
REMARK  274  A    between atoms: _671  and  _672
REMARK  275  A    between atoms: _671  and  _674
REMARK  276  A    between atoms: _674  and  _675
REMARK  277  A    between atoms: _678  and  _680
REMARK  278  A    between atoms: _680  and  _681
REMARK  279  A    between atoms: _680  and  _683
REMARK  280  A    between atoms: _686  and  _688
REMARK  281  A    between atoms: _688  and  _689
REMARK  282  A    between atoms: _688  and  _691
REMARK  283  A    between atoms: _691  and  _692
REMARK  284  A    between atoms: _695  and  _697
REMARK  285  A    between atoms: _697  and  _698
REMARK  286  A    between atoms: _697  and  _700
REMARK  287  A    between atoms: _700  and  _701
REMARK                            x       y       z     vdW  Elec       q    Type
REMARK                         _______ _______ _______ _____ _____    ______ ____
ROOT
ATOM      1  CA  TYR A   2      16.251  10.118  37.564  0.00  0.00    +0.153 C 
ENDROOT
BRANCH   1   3
ATOM      2  C   THR A   1      14.372   9.050  38.654  0.00  0.00    +0.241 C 
ATOM      3  N   TYR A   2      15.674   9.060  38.361  0.00  0.00    -0.297 N 
ATOM      4  H   TYR A   2      16.283   8.294  38.712  0.00  0.00    +0.150 HD
ATOM      5  O   THR A   1      13.607   9.909  38.268  0.00  0.00    -0.274 OA
BRANCH   2   6
ATOM      6  CA  THR A   1      13.832   7.863  39.459  0.00  0.00    +0.172 C 
BRANCH   6   7
ATOM      7  N   THR A   1      14.803   6.859  39.895  0.00  0.00    -0.236 NA
ATOM      8  H   THR A   1      15.566   7.150  40.539  0.00  0.00    +0.142 HD
ENDBRANCH   6   7
BRANCH   6   9
ATOM      9  CB  THR A   1      13.050   8.390  40.689  0.00  0.00    +0.135 C 
ATOM     10  CG2 THR A   1      12.288   7.270  41.349  0.00  0.00    +0.034 C 
BRANCH   9  11
ATOM     11  OG1 THR A   1      13.965   8.942  41.646  0.00  0.00    -0.383 OA
ATOM     12  HG1 THR A   1      14.600   8.240  41.937  0.00  0.00    +0.210 HD
ENDBRANCH   9  11
ENDBRANCH   6   9
ENDBRANCH   2   6
ENDBRANCH   1   3
BRANCH   1  13
ATOM     13  C   TYR A   2      17.129   9.451  36.513  0.00  0.00    +0.241 C 
ATOM     14  O   TYR A   2      18.197   8.945  36.809  0.00  0.00    -0.273 OA
ATOM     15  N   ASP A   3      16.640   9.429  35.279  0.00  0.00    -0.297 N 
ATOM     16  H   ASP A   3      15.706   9.849  35.095  0.00  0.00    +0.150 HD
BRANCH  15  17
ATOM     17  CA  ASP A   3      17.387   8.825  34.166  0.00  0.00    +0.160 C 
BRANCH  17  18
ATOM     18  C   ASP A   3      18.316   9.914  33.630  0.00  0.00    +0.244 C 
ATOM     19  N   PRO A   4      19.640   9.736  33.811  0.00  0.00    -0.273 N 
ATOM     20  CD  PRO A   4      20.339   8.579  34.412  0.00  0.00    +0.094 C 
ATOM     21  CG  PRO A   4      21.814   8.920  34.190  0.00  0.00    +0.024 C 
ATOM     22  CB  PRO A   4      21.858  10.431  34.132  0.00  0.00    +0.030 C 
ATOM     23  CA  PRO A   4      20.590  10.755  33.349  0.00  0.00    +0.140 C 
ATOM     24  O   ASP A   3      17.868  10.900  33.006  0.00  0.00    -0.273 OA
BRANCH  23  25
ATOM     25  C   PRO A   4      20.817  10.812  31.859  0.00  0.00    +0.227 C 
ATOM     26  O   PRO A   4      21.622  11.612  31.373  0.00  0.00    -0.286 OA
ENDBRANCH  23  25
ENDBRANCH  17  18
BRANCH  17  27
ATOM     27  CB  ASP A   3      16.379   8.349  33.124  0.00  0.00    +0.143 C 
BRANCH  27  28
ATOM     28  CG  ASP A   3      17.001   7.969  31.812  0.00  0.00    +0.367 C 
ATOM     29  OD2 ASP A   3      18.231   7.849  31.724  0.00  0.00    -0.246 OA
ATOM     30  OD1 ASP A   3      16.223   7.785  30.863  0.00  0.00    -0.246 OA
ENDBRANCH  27  28
ENDBRANCH  17  27
ENDBRANCH  15  17
ENDBRANCH   1  13
BRANCH   1  31
ATOM     31  CB  TYR A   2      17.090  11.065  38.439  0.00  0.00    +0.055 C 
BRANCH  31  32
ATOM     32  CG  TYR A   2      17.585  12.289  37.677  0.00  0.00    -0.020 A 
ATOM     33  CD2 TYR A   2      16.913  13.527  37.769  0.00  0.00    -0.001 A 
ATOM     34  CE2 TYR A   2      17.340  14.645  37.059  0.00  0.00    +0.036 A 
ATOM     35  CZ  TYR A   2      18.446  14.534  36.247  0.00  0.00    +0.134 A 
ATOM     36  CE1 TYR A   2      19.140  13.324  36.133  0.00  0.00    +0.036 A 
ATOM     37  CD1 TYR A   2      18.707  12.213  36.845  0.00  0.00    -0.001 A 
BRANCH  35  38
ATOM     38  OH  TYR A   2      18.836  15.635  35.516  0.00  0.00    -0.506 OA
ATOM     39  HH  TYR A   2      19.639  15.408  34.983  0.00  0.00    +0.292 HD
ENDBRANCH  35  38
ENDBRANCH  31  32
ENDBRANCH   1  31
TORSDOF 14
REMARK  Name = ../refined-set-2016/1ie9/1ie9_pocket.pdb
REMARK  287 active torsions:
REMARK  status: ('A' for Active; 'I' for Inactive)
REMARK    1  A    between atoms: _1  and  _3
REMARK    2  A    between atoms: _3  and  _4
REMARK    3  A    between atoms: _3  and  _6
REMARK    4  A    between atoms: _6  and  _7
REMARK    5  A    between atoms: _10  and  _12
REMARK    6  A    between atoms: _12  and  _13
REMARK    7  A    between atoms: _12  and  _15
REMARK    8  A    between atoms: _15  and  _16
REMARK    9  A    between atoms: _21  and  _22
REMARK   10  A    between atoms: _24  and  _26
REMARK   11  A    between atoms: _26  and  _27
REMARK   12  A    between atoms: _26  and  _29
REMARK   13  A    between atoms: _29  and  _30
REMARK   14  A    between atoms: _34  and  _35
REMARK   15  A    between atoms: _40  and  _42
REMARK   16  A    between atoms: _42  and  _43
REMARK   17  A    between atoms: _42  and  _45
REMARK   18  A    between atoms: _45  and  _46
REMARK   19  A    between atoms: _51  and  _52
REMARK   20  A    between atoms: _54  and  _56
REMARK   21  A    between atoms: _56  and  _57
REMARK   22  A    between atoms: _56  and  _59
REMARK   23  A    between atoms: _59  and  _60
REMARK   24  A    between atoms: _66  and  _68
REMARK   25  A    between atoms: _68  and  _69
REMARK   26  A    between atoms: _68  and  _71
REMARK   27  A    between atoms: _71  and  _72
REMARK   28  A    between atoms: _78  and  _80
REMARK   29  A    between atoms: _80  and  _81
REMARK   30  A    between atoms: _80  and  _83
REMARK   31  A    between atoms: _83  and  _84
REMARK   32  A    between atoms: _84  and  _85
REMARK   33  A    between atoms: _85  and  _86
REMARK   34  A    between atoms: _95  and  _97
REMARK   35  A    between atoms: _97  and  _98
REMARK   36  A    between atoms: _97  and  _100
REMARK   37  A    between atoms: _100  and  _101
REMARK   38  A    between atoms: _104  and  _106
REMARK   39  A    between atoms: _106  and  _107
REMARK   40  A    between atoms: _106  and  _109
REMARK   41  A    between atoms: _109  and  _110
REMARK   42  A    between atoms: _110  and  _111
REMARK   43  A    between atoms: _113  and  _115
REMARK   44  A    between atoms: _115  and  _116
REMARK   45  A    between atoms: _115  and  _118
REMARK   46  A    between atoms: _118  and  _119
REMARK   47  A    between atoms: _123  and  _124
REMARK   48  A    between atoms: _129  and  _131
REMARK   49  A    between atoms: _131  and  _132
REMARK   50  A    between atoms: _131  and  _134
REMARK   51  A    between atoms: _134  and  _135
REMARK   52  A    between atoms: _140  and  _142
REMARK   53  A    between atoms: _142  and  _143
REMARK   54  A    between atoms: _142  and  _145
REMARK   55  A    between atoms: _145  and  _146
REMARK   56  A    between atoms: _149  and  _151
REMARK   57  A    between atoms: _151  and  _152
REMARK   58  A    between atoms: _155  and  _157
REMARK   59  A    between atoms: _157  and  _158
REMARK   60  A    between atoms: _157  and  _160
REMARK   61  A    between atoms: _160  and  _161
REMARK   62  A    between atoms: _164  and  _166
REMARK   63  A    between atoms: _166  and  _167
REMARK   64  A    between atoms: _166  and  _169
REMARK   65  A    between atoms: _169  and  _170
REMARK   66  A    between atoms: _173  and  _175
REMARK   67  A    between atoms: _175  and  _176
REMARK   68  A    between atoms: _175  and  _178
REMARK   69  A    between atoms: _181  and  _183
REMARK   70  A    between atoms: _183  and  _184
REMARK   71  A    between atoms: _183  and  _186
REMARK   72  A    between atoms: _186  and  _187
REMARK   73  A    between atoms: _189  and  _191
REMARK   74  A    between atoms: _191  and  _192
REMARK   75  A    between atoms: _191  and  _194
REMARK   76  A    between atoms: _194  and  _195
REMARK   77  A    between atoms: _200  and  _201
REMARK   78  A    between atoms: _203  and  _205
REMARK   79  A    between atoms: _205  and  _206
REMARK   80  A    between atoms: _205  and  _208
REMARK   81  A    between atoms: _208  and  _209
REMARK   82  A    between atoms: _211  and  _213
REMARK   83  A    between atoms: _213  and  _214
REMARK   84  A    between atoms: _213  and  _216
REMARK   85  A    between atoms: _216  and  _217
REMARK   86  A    between atoms: _220  and  _222
REMARK   87  A    between atoms: _222  and  _223
REMARK   88  A    between atoms: _222  and  _225
REMARK   89  A    between atoms: _225  and  _226
REMARK   90  A    between atoms: _226  and  _227
REMARK   91  A    between atoms: _227  and  _228
REMARK   92  A    between atoms: _228  and  _229
REMARK   93  A    between atoms: _233  and  _235
REMARK   94  A    between atoms: _235  and  _236
REMARK   95  A    between atoms: _235  and  _238
REMARK   96  A    between atoms: _241  and  _243
REMARK   97  A    between atoms: _243  and  _244
REMARK   98  A    between atoms: _247  and  _249
REMARK   99  A    between atoms: _249  and  _250
REMARK  100  A    between atoms: _249  and  _252
REMARK  101  A    between atoms: _252  and  _253
REMARK  102  A    between atoms: _256  and  _258
REMARK  103  A    between atoms: _258  and  _259
REMARK  104  A    between atoms: _258  and  _261
REMARK  105  A    between atoms: _261  and  _262
REMARK  106  A    between atoms: _262  and  _263
REMARK  107  A    between atoms: _266  and  _268
REMARK  108  A    between atoms: _268  and  _269
REMARK  109  A    between atoms: _268  and  _271
REMARK  110  A    between atoms: _274  and  _276
REMARK  111  A    between atoms: _276  and  _277
REMARK  112  A    between atoms: _276  and  _279
REMARK  113  A    between atoms: _279  and  _280
REMARK  114  A    between atoms: _283  and  _285
REMARK  115  A    between atoms: _285  and  _286
REMARK  116  A    between atoms: _285  and  _288
REMARK  117  A    between atoms: _288  and  _289
REMARK  118  A    between atoms: _289  and  _290
REMARK  119  A    between atoms: _292  and  _294
REMARK  120  A    between atoms: _294  and  _295
REMARK  121  A    between atoms: _294  and  _297
REMARK  122  A    between atoms: _297  and  _298
REMARK  123  A    between atoms: _301  and  _303
REMARK  124  A    between atoms: _303  and  _304
REMARK  125  A    between atoms: _303  and  _306
REMARK  126  A    between atoms: _306  and  _307
REMARK  127  A    between atoms: _307  and  _308
REMARK  128  A    between atoms: _308  and  _309
REMARK  129  A    between atoms: _318  and  _320
REMARK  130  A    between atoms: _320  and  _321
REMARK  131  A    between atoms: _320  and  _323
REMARK  132  A    between atoms: _323  and  _324
REMARK  133  A    between atoms: _326  and  _328
REMARK  134  A    between atoms: _328  and  _329
REMARK  135  A    between atoms: _328  and  _331
REMARK  136  A    between atoms: _331  and  _332
REMARK  137  A    between atoms: _337  and  _339
REMARK  138  A    between atoms: _339  and  _340
REMARK  139  A    between atoms: _339  and  _342
REMARK  140  A    between atoms: _342  and  _343
REMARK  141  A    between atoms: _343  and  _344
REMARK  142  A    between atoms: _347  and  _349
REMARK  143  A    between atoms: _349  and  _350
REMARK  144  A    between atoms: _349  and  _352
REMARK  145  A    between atoms: _352  and  _353
REMARK  146  A    between atoms: _355  and  _357
REMARK  147  A    between atoms: _357  and  _358
REMARK  148  A    between atoms: _357  and  _360
REMARK  149  A    between atoms: _360  and  _361
REMARK  150  A    between atoms: _367  and  _369
REMARK  151  A    between atoms: _369  and  _370
REMARK  152  A    between atoms: _369  and  _372
REMARK  153  A    between atoms: _372  and  _373
REMARK  154  A    between atoms: _375  and  _377
REMARK  155  A    between atoms: _377  and  _378
REMARK  156  A    between atoms: _377  and  _380
REMARK  157  A    between atoms: _380  and  _381
REMARK  158  A    between atoms: _391  and  _393
REMARK  159  A    between atoms: _393  and  _394
REMARK  160  A    between atoms: _393  and  _396
REMARK  161  A    between atoms: _396  and  _397
REMARK  162  A    between atoms: _400  and  _402
REMARK  163  A    between atoms: _402  and  _403
REMARK  164  A    between atoms: _402  and  _405
REMARK  165  A    between atoms: _407  and  _409
REMARK  166  A    between atoms: _409  and  _410
REMARK  167  A    between atoms: _409  and  _412
REMARK  168  A    between atoms: _412  and  _413
REMARK  169  A    between atoms: _418  and  _419
REMARK  170  A    between atoms: _421  and  _423
REMARK  171  A    between atoms: _423  and  _424
REMARK  172  A    between atoms: _423  and  _426
REMARK  173  A    between atoms: _426  and  _427
REMARK  174  A    between atoms: _427  and  _428
REMARK  175  A    between atoms: _428  and  _429
REMARK  176  A    between atoms: _429  and  _430
REMARK  177  A    between atoms: _434  and  _436
REMARK  178  A    between atoms: _436  and  _437
REMARK  179  A    between atoms: _436  and  _439
REMARK  180  A    between atoms: _439  and  _440
REMARK  181  A    between atoms: _445  and  _446
REMARK  182  A    between atoms: _448  and  _450
REMARK  183  A    between atoms: _450  and  _451
REMARK  184  A    between atoms: _450  and  _453
REMARK  185  A    between atoms: _453  and  _454
REMARK  186  A    between atoms: _454  and  _455
REMARK  187  A    between atoms: _455  and  _456
REMARK  188  A    between atoms: _465  and  _467
REMARK  189  A    between atoms: _467  and  _468
REMARK  190  A    between atoms: _467  and  _470
REMARK  191  A    between atoms: _473  and  _475
REMARK  192  A    between atoms: _475  and  _476
REMARK  193  A    between atoms: _475  and  _478
REMARK  194  A    between atoms: _478  and  _479
REMARK  195  A    between atoms: _482  and  _484
REMARK  196  A    between atoms: _484  and  _485
REMARK  197  A    between atoms: _484  and  _487
REMARK  198  A    between atoms: _490  and  _492
REMARK  199  A    between atoms: _492  and  _493
REMARK  200  A    between atoms: _492  and  _495
REMARK  201  A    between atoms: _495  and  _496
REMARK  202  A    between atoms: _499  and  _501
REMARK  203  A    between atoms: _501  and  _502
REMARK  204  A    between atoms: _505  and  _507
REMARK  205  A    between atoms: _507  and  _508
REMARK  206  A    between atoms: _510  and  _512
REMARK  207  A    between atoms: _512  and  _513
REMARK  208  A    between atoms: _512  and  _515
REMARK  209  A    between atoms: _515  and  _516
REMARK  210  A    between atoms: _521  and  _523
REMARK  211  A    between atoms: _523  and  _524
REMARK  212  A    between atoms: _523  and  _526
REMARK  213  A    between atoms: _526  and  _527
REMARK  214  A    between atoms: _530  and  _532
REMARK  215  A    between atoms: _532  and  _533
REMARK  216  A    between atoms: _532  and  _535
REMARK  217  A    between atoms: _535  and  _536
REMARK  218  A    between atoms: _539  and  _541
REMARK  219  A    between atoms: _541  and  _542
REMARK  220  A    between atoms: _541  and  _544
REMARK  221  A    between atoms: _544  and  _545
REMARK  222  A    between atoms: _548  and  _550
REMARK  223  A    between atoms: _550  and  _551
REMARK  224  A    between atoms: _550  and  _553
REMARK  225  A    between atoms: _553  and  _554
REMARK  226  A    between atoms: _554  and  _555
REMARK  227  A    between atoms: _560  and  _562
REMARK  228  A    between atoms: _562  and  _563
REMARK  229  A    between atoms: _562  and  _565
REMARK  230  A    between atoms: _565  and  _566
REMARK  231  A    between atoms: _569  and  _571
REMARK  232  A    between atoms: _571  and  _572
REMARK  233  A    between atoms: _571  and  _574
REMARK  234  A    between atoms: _574  and  _575
REMARK  235  A    between atoms: _580  and  _582
REMARK  236  A    between atoms: _582  and  _583
REMARK  237  A    between atoms: _582  and  _585
REMARK  238  A    between atoms: _585  and  _586
REMARK  239  A    between atoms: _588  and  _590
REMARK  240  A    between atoms: _590  and  _591
REMARK  241  A    between atoms: _590  and  _593
REMARK  242  A    between atoms: _593  and  _594
REMARK  243  A    between atoms: _594  and  _595
REMARK  244  A    between atoms: _600  and  _602
REMARK  245  A    between atoms: _602  and  _603
REMARK  246  A    between atoms: _602  and  _605
REMARK  247  A    between atoms: _605  and  _606
REMARK  248  A    between atoms: _611  and  _612
REMARK  249  A    between atoms: _614  and  _616
REMARK  250  A    between atoms: _616  and  _617
REMARK  251  A    between atoms: _616  and  _619
REMARK  252  A    between atoms: _619  and  _620
REMARK  253  A    between atoms: _620  and  _621
REMARK  254  A    between atoms: _621  and  _622
REMARK  255  A    between atoms: _631  and  _633
REMARK  256  A    between atoms: _633  and  _634
REMARK  257  A    between atoms: _633  and  _636
REMARK  258  A    between atoms: _636  and  _637
REMARK  259  A    between atoms: _640  and  _642
REMARK  260  A    between atoms: _642  and  _643
REMARK  261  A    between atoms: _642  and  _645
REMARK  262  A    between atoms: _647  and  _649
REMARK  263  A    between atoms: _649  and  _650
REMARK  264  A    between atoms: _649  and  _652
REMARK  265  A    between atoms: _652  and  _653
REMARK  266  A    between atoms: _653  and  _654
REMARK  267  A    between atoms: _654  and  _655
REMARK  268  A    between atoms: _655  and  _656
REMARK  269  A    between atoms: _660  and  _662
REMARK  270  A    between atoms: _662  and  _663
REMARK  271  A    between atoms: _662  and  _665
REMARK  272  A    between atoms: _665  and  _666
REMARK  273  A    between atoms: _669  and  _671
REMARK  274  A    between atoms: _671  and  _672
REMARK  275  A    between atoms: _671  and  _674
REMARK  276  A    between atoms: _674  and  _675
REMARK  277  A    between atoms: _678  and  _680
REMARK  278  A    between atoms: _680  and  _681
REMARK  279  A    between atoms: _680  and  _683
REMARK  280  A    between atoms: _686  and  _688
REMARK  281  A    between atoms: _688  and  _689
REMARK  282  A    between atoms: _688  and  _691
REMARK  283  A    between atoms: _691  and  _692
REMARK  284  A    between atoms: _695  and  _697
REMARK  285  A    between atoms: _697  and  _698
REMARK  286  A    between atoms: _697  and  _700
REMARK  287  A    between atoms: _700  and  _701
REMARK                            x       y       z     vdW  Elec       q    Type
REMARK                         _______ _______ _______ _____ _____    ______ ____
ROOT
ATOM      1  CG  TYR A   1      17.956  13.738  30.130  0.00  0.00    -0.020 A 
ATOM      2  CD2 TYR A   1      17.426  13.977  31.395  0.00  0.00    -0.001 A 
ATOM      3  CE2 TYR A   1      18.194  14.424  32.440  0.00  0.00    +0.036 A 
ATOM      4  CZ  TYR A   1      19.518  14.650  32.237  0.00  0.00    +0.134 A 
ATOM      5  CE1 TYR A   1      20.113  14.450  30.995  0.00  0.00    +0.036 A 
ATOM      6  CD1 TYR A   1      19.312  13.985  29.921  0.00  0.00    -0.001 A 
ENDROOT
BRANCH   4   7
ATOM      7  OH  TYR A   1      20.252  15.055  33.325  0.00  0.00    -0.506 OA
ATOM      8  HH  TYR A   1      19.885  15.907  33.671  0.00  0.00    +0.292 HD
ENDBRANCH   4   7
BRANCH   1   9
ATOM      9  CB  TYR A   1      17.104  13.080  29.072  0.00  0.00    +0.051 C 
BRANCH   9  10
ATOM     10  CA  TYR A   1      16.748  11.627  29.461  0.00  0.00    +0.137 C 
BRANCH  10  11
ATOM     11  N   TYR A   1      17.975  10.949  29.909  0.00  0.00    -0.239 NA
ATOM     12  H   TYR A   1      18.081  10.703  30.914  0.00  0.00    +0.142 HD
ENDBRANCH  10  11
BRANCH  10  13
ATOM     13  C   TYR A   1      16.111  10.883  28.280  0.00  0.00    +0.224 C 
ATOM     14  O   TYR A   1      15.480  11.464  27.442  0.00  0.00    -0.287 OA
ENDBRANCH  10  13
ENDBRANCH   9  10
ENDBRANCH   1   9
TORSDOF 5
REMARK  Name = ../refined-set-2016/1ie9/1ie9_pocket.pdb
REMARK  287 active torsions:
REMARK  status: ('A' for Active; 'I' for Inactive)
REMARK    1  A    between atoms: _1  and  _3
REMARK    2  A    between atoms: _3  and  _4
REMARK    3  A    between atoms: _3  and  _6
REMARK    4  A    between atoms: _6  and  _7
REMARK    5  A    between atoms: _10  and  _12
REMARK    6  A    between atoms: _12  and  _13
REMARK    7  A    between atoms: _12  and  _15
REMARK    8  A    between atoms: _15  and  _16
REMARK    9  A    between atoms: _21  and  _22
REMARK   10  A    between atoms: _24  and  _26
REMARK   11  A    between atoms: _26  and  _27
REMARK   12  A    between atoms: _26  and  _29
REMARK   13  A    between atoms: _29  and  _30
REMARK   14  A    between atoms: _34  and  _35
REMARK   15  A    between atoms: _40  and  _42
REMARK   16  A    between atoms: _42  and  _43
REMARK   17  A    between atoms: _42  and  _45
REMARK   18  A    between atoms: _45  and  _46
REMARK   19  A    between atoms: _51  and  _52
REMARK   20  A    between atoms: _54  and  _56
REMARK   21  A    between atoms: _56  and  _57
REMARK   22  A    between atoms: _56  and  _59
REMARK   23  A    between atoms: _59  and  _60
REMARK   24  A    between atoms: _66  and  _68
REMARK   25  A    between atoms: _68  and  _69
REMARK   26  A    between atoms: _68  and  _71
REMARK   27  A    between atoms: _71  and  _72
REMARK   28  A    between atoms: _78  and  _80
REMARK   29  A    between atoms: _80  and  _81
REMARK   30  A    between atoms: _80  and  _83
REMARK   31  A    between atoms: _83  and  _84
REMARK   32  A    between atoms: _84  and  _85
REMARK   33  A    between atoms: _85  and  _86
REMARK   34  A    between atoms: _95  and  _97
REMARK   35  A    between atoms: _97  and  _98
REMARK   36  A    between atoms: _97  and  _100
REMARK   37  A    between atoms: _100  and  _101
REMARK   38  A    between atoms: _104  and  _106
REMARK   39  A    between atoms: _106  and  _107
REMARK   40  A    between atoms: _106  and  _109
REMARK   41  A    between atoms: _109  and  _110
REMARK   42  A    between atoms: _110  and  _111
REMARK   43  A    between atoms: _113  and  _115
REMARK   44  A    between atoms: _115  and  _116
REMARK   45  A    between atoms: _115  and  _118
REMARK   46  A    between atoms: _118  and  _119
REMARK   47  A    between atoms: _123  and  _124
REMARK   48  A    between atoms: _129  and  _131
REMARK   49  A    between atoms: _131  and  _132
REMARK   50  A    between atoms: _131  and  _134
REMARK   51  A    between atoms: _134  and  _135
REMARK   52  A    between atoms: _140  and  _142
REMARK   53  A    between atoms: _142  and  _143
REMARK   54  A    between atoms: _142  and  _145
REMARK   55  A    between atoms: _145  and  _146
REMARK   56  A    between atoms: _149  and  _151
REMARK   57  A    between atoms: _151  and  _152
REMARK   58  A    between atoms: _155  and  _157
REMARK   59  A    between atoms: _157  and  _158
REMARK   60  A    between atoms: _157  and  _160
REMARK   61  A    between atoms: _160  and  _161
REMARK   62  A    between atoms: _164  and  _166
REMARK   63  A    between atoms: _166  and  _167
REMARK   64  A    between atoms: _166  and  _169
REMARK   65  A    between atoms: _169  and  _170
REMARK   66  A    between atoms: _173  and  _175
REMARK   67  A    between atoms: _175  and  _176
REMARK   68  A    between atoms: _175  and  _178
REMARK   69  A    between atoms: _181  and  _183
REMARK   70  A    between atoms: _183  and  _184
REMARK   71  A    between atoms: _183  and  _186
REMARK   72  A    between atoms: _186  and  _187
REMARK   73  A    between atoms: _189  and  _191
REMARK   74  A    between atoms: _191  and  _192
REMARK   75  A    between atoms: _191  and  _194
REMARK   76  A    between atoms: _194  and  _195
REMARK   77  A    between atoms: _200  and  _201
REMARK   78  A    between atoms: _203  and  _205
REMARK   79  A    between atoms: _205  and  _206
REMARK   80  A    between atoms: _205  and  _208
REMARK   81  A    between atoms: _208  and  _209
REMARK   82  A    between atoms: _211  and  _213
REMARK   83  A    between atoms: _213  and  _214
REMARK   84  A    between atoms: _213  and  _216
REMARK   85  A    between atoms: _216  and  _217
REMARK   86  A    between atoms: _220  and  _222
REMARK   87  A    between atoms: _222  and  _223
REMARK   88  A    between atoms: _222  and  _225
REMARK   89  A    between atoms: _225  and  _226
REMARK   90  A    between atoms: _226  and  _227
REMARK   91  A    between atoms: _227  and  _228
REMARK   92  A    between atoms: _228  and  _229
REMARK   93  A    between atoms: _233  and  _235
REMARK   94  A    between atoms: _235  and  _236
REMARK   95  A    between atoms: _235  and  _238
REMARK   96  A    between atoms: _241  and  _243
REMARK   97  A    between atoms: _243  and  _244
REMARK   98  A    between atoms: _247  and  _249
REMARK   99  A    between atoms: _249  and  _250
REMARK  100  A    between atoms: _249  and  _252
REMARK  101  A    between atoms: _252  and  _253
REMARK  102  A    between atoms: _256  and  _258
REMARK  103  A    between atoms: _258  and  _259
REMARK  104  A    between atoms: _258  and  _261
REMARK  105  A    between atoms: _261  and  _262
REMARK  106  A    between atoms: _262  and  _263
REMARK  107  A    between atoms: _266  and  _268
REMARK  108  A    between atoms: _268  and  _269
REMARK  109  A    between atoms: _268  and  _271
REMARK  110  A    between atoms: _274  and  _276
REMARK  111  A    between atoms: _276  and  _277
REMARK  112  A    between atoms: _276  and  _279
REMARK  113  A    between atoms: _279  and  _280
REMARK  114  A    between atoms: _283  and  _285
REMARK  115  A    between atoms: _285  and  _286
REMARK  116  A    between atoms: _285  and  _288
REMARK  117  A    between atoms: _288  and  _289
REMARK  118  A    between atoms: _289  and  _290
REMARK  119  A    between atoms: _292  and  _294
REMARK  120  A    between atoms: _294  and  _295
REMARK  121  A    between atoms: _294  and  _297
REMARK  122  A    between atoms: _297  and  _298
REMARK  123  A    between atoms: _301  and  _303
REMARK  124  A    between atoms: _303  and  _304
REMARK  125  A    between atoms: _303  and  _306
REMARK  126  A    between atoms: _306  and  _307
REMARK  127  A    between atoms: _307  and  _308
REMARK  128  A    between atoms: _308  and  _309
REMARK  129  A    between atoms: _318  and  _320
REMARK  130  A    between atoms: _320  and  _321
REMARK  131  A    between atoms: _320  and  _323
REMARK  132  A    between atoms: _323  and  _324
REMARK  133  A    between atoms: _326  and  _328
REMARK  134  A    between atoms: _328  and  _329
REMARK  135  A    between atoms: _328  and  _331
REMARK  136  A    between atoms: _331  and  _332
REMARK  137  A    between atoms: _337  and  _339
REMARK  138  A    between atoms: _339  and  _340
REMARK  139  A    between atoms: _339  and  _342
REMARK  140  A    between atoms: _342  and  _343
REMARK  141  A    between atoms: _343  and  _344
REMARK  142  A    between atoms: _347  and  _349
REMARK  143  A    between atoms: _349  and  _350
REMARK  144  A    between atoms: _349  and  _352
REMARK  145  A    between atoms: _352  and  _353
REMARK  146  A    between atoms: _355  and  _357
REMARK  147  A    between atoms: _357  and  _358
REMARK  148  A    between atoms: _357  and  _360
REMARK  149  A    between atoms: _360  and  _361
REMARK  150  A    between atoms: _367  and  _369
REMARK  151  A    between atoms: _369  and  _370
REMARK  152  A    between atoms: _369  and  _372
REMARK  153  A    between atoms: _372  and  _373
REMARK  154  A    between atoms: _375  and  _377
REMARK  155  A    between atoms: _377  and  _378
REMARK  156  A    between atoms: _377  and  _380
REMARK  157  A    between atoms: _380  and  _381
REMARK  158  A    between atoms: _391  and  _393
REMARK  159  A    between atoms: _393  and  _394
REMARK  160  A    between atoms: _393  and  _396
REMARK  161  A    between atoms: _396  and  _397
REMARK  162  A    between atoms: _400  and  _402
REMARK  163  A    between atoms: _402  and  _403
REMARK  164  A    between atoms: _402  and  _405
REMARK  165  A    between atoms: _407  and  _409
REMARK  166  A    between atoms: _409  and  _410
REMARK  167  A    between atoms: _409  and  _412
REMARK  168  A    between atoms: _412  and  _413
REMARK  169  A    between atoms: _418  and  _419
REMARK  170  A    between atoms: _421  and  _423
REMARK  171  A    between atoms: _423  and  _424
REMARK  172  A    between atoms: _423  and  _426
REMARK  173  A    between atoms: _426  and  _427
REMARK  174  A    between atoms: _427  and  _428
REMARK  175  A    between atoms: _428  and  _429
REMARK  176  A    between atoms: _429  and  _430
REMARK  177  A    between atoms: _434  and  _436
REMARK  178  A    between atoms: _436  and  _437
REMARK  179  A    between atoms: _436  and  _439
REMARK  180  A    between atoms: _439  and  _440
REMARK  181  A    between atoms: _445  and  _446
REMARK  182  A    between atoms: _448  and  _450
REMARK  183  A    between atoms: _450  and  _451
REMARK  184  A    between atoms: _450  and  _453
REMARK  185  A    between atoms: _453  and  _454
REMARK  186  A    between atoms: _454  and  _455
REMARK  187  A    between atoms: _455  and  _456
REMARK  188  A    between atoms: _465  and  _467
REMARK  189  A    between atoms: _467  and  _468
REMARK  190  A    between atoms: _467  and  _470
REMARK  191  A    between atoms: _473  and  _475
REMARK  192  A    between atoms: _475  and  _476
REMARK  193  A    between atoms: _475  and  _478
REMARK  194  A    between atoms: _478  and  _479
REMARK  195  A    between atoms: _482  and  _484
REMARK  196  A    between atoms: _484  and  _485
REMARK  197  A    between atoms: _484  and  _487
REMARK  198  A    between atoms: _490  and  _492
REMARK  199  A    between atoms: _492  and  _493
REMARK  200  A    between atoms: _492  and  _495
REMARK  201  A    between atoms: _495  and  _496
REMARK  202  A    between atoms: _499  and  _501
REMARK  203  A    between atoms: _501  and  _502
REMARK  204  A    between atoms: _505  and  _507
REMARK  205  A    between atoms: _507  and  _508
REMARK  206  A    between atoms: _510  and  _512
REMARK  207  A    between atoms: _512  and  _513
REMARK  208  A    between atoms: _512  and  _515
REMARK  209  A    between atoms: _515  and  _516
REMARK  210  A    between atoms: _521  and  _523
REMARK  211  A    between atoms: _523  and  _524
REMARK  212  A    between atoms: _523  and  _526
REMARK  213  A    between atoms: _526  and  _527
REMARK  214  A    between atoms: _530  and  _532
REMARK  215  A    between atoms: _532  and  _533
REMARK  216  A    between atoms: _532  and  _535
REMARK  217  A    between atoms: _535  and  _536
REMARK  218  A    between atoms: _539  and  _541
REMARK  219  A    between atoms: _541  and  _542
REMARK  220  A    between atoms: _541  and  _544
REMARK  221  A    between atoms: _544  and  _545
REMARK  222  A    between atoms: _548  and  _550
REMARK  223  A    between atoms: _550  and  _551
REMARK  224  A    between atoms: _550  and  _553
REMARK  225  A    between atoms: _553  and  _554
REMARK  226  A    between atoms: _554  and  _555
REMARK  227  A    between atoms: _560  and  _562
REMARK  228  A    between atoms: _562  and  _563
REMARK  229  A    between atoms: _562  and  _565
REMARK  230  A    between atoms: _565  and  _566
REMARK  231  A    between atoms: _569  and  _571
REMARK  232  A    between atoms: _571  and  _572
REMARK  233  A    between atoms: _571  and  _574
REMARK  234  A    between atoms: _574  and  _575
REMARK  235  A    between atoms: _580  and  _582
REMARK  236  A    between atoms: _582  and  _583
REMARK  237  A    between atoms: _582  and  _585
REMARK  238  A    between atoms: _585  and  _586
REMARK  239  A    between atoms: _588  and  _590
REMARK  240  A    between atoms: _590  and  _591
REMARK  241  A    between atoms: _590  and  _593
REMARK  242  A    between atoms: _593  and  _594
REMARK  243  A    between atoms: _594  and  _595
REMARK  244  A    between atoms: _600  and  _602
REMARK  245  A    between atoms: _602  and  _603
REMARK  246  A    between atoms: _602  and  _605
REMARK  247  A    between atoms: _605  and  _606
REMARK  248  A    between atoms: _611  and  _612
REMARK  249  A    between atoms: _614  and  _616
REMARK  250  A    between atoms: _616  and  _617
REMARK  251  A    between atoms: _616  and  _619
REMARK  252  A    between atoms: _619  and  _620
REMARK  253  A    between atoms: _620  and  _621
REMARK  254  A    between atoms: _621  and  _622
REMARK  255  A    between atoms: _631  and  _633
REMARK  256  A    between atoms: _633  and  _634
REMARK  257  A    between atoms: _633  and  _636
REMARK  258  A    between atoms: _636  and  _637
REMARK  259  A    between atoms: _640  and  _642
REMARK  260  A    between atoms: _642  and  _643
REMARK  261  A    between atoms: _642  and  _645
REMARK  262  A    between atoms: _647  and  _649
REMARK  263  A    between atoms: _649  and  _650
REMARK  264  A    between atoms: _649  and  _652
REMARK  265  A    between atoms: _652  and  _653
REMARK  266  A    between atoms: _653  and  _654
REMARK  267  A    between atoms: _654  and  _655
REMARK  268  A    between atoms: _655  and  _656
REMARK  269  A    between atoms: _660  and  _662
REMARK  270  A    between atoms: _662  and  _663
REMARK  271  A    between atoms: _662  and  _665
REMARK  272  A    between atoms: _665  and  _666
REMARK  273  A    between atoms: _669  and  _671
REMARK  274  A    between atoms: _671  and  _672
REMARK  275  A    between atoms: _671  and  _674
REMARK  276  A    between atoms: _674  and  _675
REMARK  277  A    between atoms: _678  and  _680
REMARK  278  A    between atoms: _680  and  _681
REMARK  279  A    between atoms: _680  and  _683
REMARK  280  A    between atoms: _686  and  _688
REMARK  281  A    between atoms: _688  and  _689
REMARK  282  A    between atoms: _688  and  _691
REMARK  283  A    between atoms: _691  and  _692
REMARK  284  A    between atoms: _695  and  _697
REMARK  285  A    between atoms: _697  and  _698
REMARK  286  A    between atoms: _697  and  _700
REMARK  287  A    between atoms: _700  and  _701
REMARK                            x       y       z     vdW  Elec       q    Type
REMARK                         _______ _______ _______ _____ _____    ______ ____
ROOT
ATOM      1  CB  PHE A   1      12.930  13.830  26.787  0.00  0.00    +0.051 C 
ENDROOT
BRANCH   1   2
ATOM      2  CG  PHE A   1      13.304  14.167  28.241  0.00  0.00    -0.020 A 
ATOM      3  CD2 PHE A   1      13.049  13.280  29.300  0.00  0.00    -0.004 A 
ATOM      4  CE2 PHE A   1      13.437  13.591  30.602  0.00  0.00    -0.000 A 
ATOM      5  CZ  PHE A   1      14.084  14.790  30.859  0.00  0.00    -0.000 A 
ATOM      6  CE1 PHE A   1      14.334  15.666  29.823  0.00  0.00    -0.000 A 
ATOM      7  CD1 PHE A   1      13.948  15.358  28.536  0.00  0.00    -0.004 A 
ENDBRANCH   1   2
BRANCH   1   8
ATOM      8  CA  PHE A   1      11.831  12.763  26.659  0.00  0.00    +0.137 C 
BRANCH   8   9
ATOM      9  N   PHE A   1      12.326  11.446  27.102  0.00  0.00    -0.239 NA
ATOM     10  H   PHE A   1      13.333  11.316  27.329  0.00  0.00    +0.142 HD
ENDBRANCH   8   9
BRANCH   8  11
ATOM     11  C   PHE A   1      11.218  12.803  25.268  0.00  0.00    +0.224 C 
ATOM     12  O   PHE A   1      10.394  13.631  24.990  0.00  0.00    -0.287 OA
ENDBRANCH   8  11
ENDBRANCH   1   8
TORSDOF 4
REMARK  Name = ../refined-set-2016/1ie9/1ie9_pocket.pdb
REMARK  287 active torsions:
REMARK  status: ('A' for Active; 'I' for Inactive)
REMARK    1  A    between atoms: _1  and  _3
REMARK    2  A    between atoms: _3  and  _4
REMARK    3  A    between atoms: _3  and  _6
REMARK    4  A    between atoms: _6  and  _7
REMARK    5  A    between atoms: _10  and  _12
REMARK    6  A    between atoms: _12  and  _13
REMARK    7  A    between atoms: _12  and  _15
REMARK    8  A    between atoms: _15  and  _16
REMARK    9  A    between atoms: _21  and  _22
REMARK   10  A    between atoms: _24  and  _26
REMARK   11  A    between atoms: _26  and  _27
REMARK   12  A    between atoms: _26  and  _29
REMARK   13  A    between atoms: _29  and  _30
REMARK   14  A    between atoms: _34  and  _35
REMARK   15  A    between atoms: _40  and  _42
REMARK   16  A    between atoms: _42  and  _43
REMARK   17  A    between atoms: _42  and  _45
REMARK   18  A    between atoms: _45  and  _46
REMARK   19  A    between atoms: _51  and  _52
REMARK   20  A    between atoms: _54  and  _56
REMARK   21  A    between atoms: _56  and  _57
REMARK   22  A    between atoms: _56  and  _59
REMARK   23  A    between atoms: _59  and  _60
REMARK   24  A    between atoms: _66  and  _68
REMARK   25  A    between atoms: _68  and  _69
REMARK   26  A    between atoms: _68  and  _71
REMARK   27  A    between atoms: _71  and  _72
REMARK   28  A    between atoms: _78  and  _80
REMARK   29  A    between atoms: _80  and  _81
REMARK   30  A    between atoms: _80  and  _83
REMARK   31  A    between atoms: _83  and  _84
REMARK   32  A    between atoms: _84  and  _85
REMARK   33  A    between atoms: _85  and  _86
REMARK   34  A    between atoms: _95  and  _97
REMARK   35  A    between atoms: _97  and  _98
REMARK   36  A    between atoms: _97  and  _100
REMARK   37  A    between atoms: _100  and  _101
REMARK   38  A    between atoms: _104  and  _106
REMARK   39  A    between atoms: _106  and  _107
REMARK   40  A    between atoms: _106  and  _109
REMARK   41  A    between atoms: _109  and  _110
REMARK   42  A    between atoms: _110  and  _111
REMARK   43  A    between atoms: _113  and  _115
REMARK   44  A    between atoms: _115  and  _116
REMARK   45  A    between atoms: _115  and  _118
REMARK   46  A    between atoms: _118  and  _119
REMARK   47  A    between atoms: _123  and  _124
REMARK   48  A    between atoms: _129  and  _131
REMARK   49  A    between atoms: _131  and  _132
REMARK   50  A    between atoms: _131  and  _134
REMARK   51  A    between atoms: _134  and  _135
REMARK   52  A    between atoms: _140  and  _142
REMARK   53  A    between atoms: _142  and  _143
REMARK   54  A    between atoms: _142  and  _145
REMARK   55  A    between atoms: _145  and  _146
REMARK   56  A    between atoms: _149  and  _151
REMARK   57  A    between atoms: _151  and  _152
REMARK   58  A    between atoms: _155  and  _157
REMARK   59  A    between atoms: _157  and  _158
REMARK   60  A    between atoms: _157  and  _160
REMARK   61  A    between atoms: _160  and  _161
REMARK   62  A    between atoms: _164  and  _166
REMARK   63  A    between atoms: _166  and  _167
REMARK   64  A    between atoms: _166  and  _169
REMARK   65  A    between atoms: _169  and  _170
REMARK   66  A    between atoms: _173  and  _175
REMARK   67  A    between atoms: _175  and  _176
REMARK   68  A    between atoms: _175  and  _178
REMARK   69  A    between atoms: _181  and  _183
REMARK   70  A    between atoms: _183  and  _184
REMARK   71  A    between atoms: _183  and  _186
REMARK   72  A    between atoms: _186  and  _187
REMARK   73  A    between atoms: _189  and  _191
REMARK   74  A    between atoms: _191  and  _192
REMARK   75  A    between atoms: _191  and  _194
REMARK   76  A    between atoms: _194  and  _195
REMARK   77  A    between atoms: _200  and  _201
REMARK   78  A    between atoms: _203  and  _205
REMARK   79  A    between atoms: _205  and  _206
REMARK   80  A    between atoms: _205  and  _208
REMARK   81  A    between atoms: _208  and  _209
REMARK   82  A    between atoms: _211  and  _213
REMARK   83  A    between atoms: _213  and  _214
REMARK   84  A    between atoms: _213  and  _216
REMARK   85  A    between atoms: _216  and  _217
REMARK   86  A    between atoms: _220  and  _222
REMARK   87  A    between atoms: _222  and  _223
REMARK   88  A    between atoms: _222  and  _225
REMARK   89  A    between atoms: _225  and  _226
REMARK   90  A    between atoms: _226  and  _227
REMARK   91  A    between atoms: _227  and  _228
REMARK   92  A    between atoms: _228  and  _229
REMARK   93  A    between atoms: _233  and  _235
REMARK   94  A    between atoms: _235  and  _236
REMARK   95  A    between atoms: _235  and  _238
REMARK   96  A    between atoms: _241  and  _243
REMARK   97  A    between atoms: _243  and  _244
REMARK   98  A    between atoms: _247  and  _249
REMARK   99  A    between atoms: _249  and  _250
REMARK  100  A    between atoms: _249  and  _252
REMARK  101  A    between atoms: _252  and  _253
REMARK  102  A    between atoms: _256  and  _258
REMARK  103  A    between atoms: _258  and  _259
REMARK  104  A    between atoms: _258  and  _261
REMARK  105  A    between atoms: _261  and  _262
REMARK  106  A    between atoms: _262  and  _263
REMARK  107  A    between atoms: _266  and  _268
REMARK  108  A    between atoms: _268  and  _269
REMARK  109  A    between atoms: _268  and  _271
REMARK  110  A    between atoms: _274  and  _276
REMARK  111  A    between atoms: _276  and  _277
REMARK  112  A    between atoms: _276  and  _279
REMARK  113  A    between atoms: _279  and  _280
REMARK  114  A    between atoms: _283  and  _285
REMARK  115  A    between atoms: _285  and  _286
REMARK  116  A    between atoms: _285  and  _288
REMARK  117  A    between atoms: _288  and  _289
REMARK  118  A    between atoms: _289  and  _290
REMARK  119  A    between atoms: _292  and  _294
REMARK  120  A    between atoms: _294  and  _295
REMARK  121  A    between atoms: _294  and  _297
REMARK  122  A    between atoms: _297  and  _298
REMARK  123  A    between atoms: _301  and  _303
REMARK  124  A    between atoms: _303  and  _304
REMARK  125  A    between atoms: _303  and  _306
REMARK  126  A    between atoms: _306  and  _307
REMARK  127  A    between atoms: _307  and  _308
REMARK  128  A    between atoms: _308  and  _309
REMARK  129  A    between atoms: _318  and  _320
REMARK  130  A    between atoms: _320  and  _321
REMARK  131  A    between atoms: _320  and  _323
REMARK  132  A    between atoms: _323  and  _324
REMARK  133  A    between atoms: _326  and  _328
REMARK  134  A    between atoms: _328  and  _329
REMARK  135  A    between atoms: _328  and  _331
REMARK  136  A    between atoms: _331  and  _332
REMARK  137  A    between atoms: _337  and  _339
REMARK  138  A    between atoms: _339  and  _340
REMARK  139  A    between atoms: _339  and  _342
REMARK  140  A    between atoms: _342  and  _343
REMARK  141  A    between atoms: _343  and  _344
REMARK  142  A    between atoms: _347  and  _349
REMARK  143  A    between atoms: _349  and  _350
REMARK  144  A    between atoms: _349  and  _352
REMARK  145  A    between atoms: _352  and  _353
REMARK  146  A    between atoms: _355  and  _357
REMARK  147  A    between atoms: _357  and  _358
REMARK  148  A    between atoms: _357  and  _360
REMARK  149  A    between atoms: _360  and  _361
REMARK  150  A    between atoms: _367  and  _369
REMARK  151  A    between atoms: _369  and  _370
REMARK  152  A    between atoms: _369  and  _372
REMARK  153  A    between atoms: _372  and  _373
REMARK  154  A    between atoms: _375  and  _377
REMARK  155  A    between atoms: _377  and  _378
REMARK  156  A    between atoms: _377  and  _380
REMARK  157  A    between atoms: _380  and  _381
REMARK  158  A    between atoms: _391  and  _393
REMARK  159  A    between atoms: _393  and  _394
REMARK  160  A    between atoms: _393  and  _396
REMARK  161  A    between atoms: _396  and  _397
REMARK  162  A    between atoms: _400  and  _402
REMARK  163  A    between atoms: _402  and  _403
REMARK  164  A    between atoms: _402  and  _405
REMARK  165  A    between atoms: _407  and  _409
REMARK  166  A    between atoms: _409  and  _410
REMARK  167  A    between atoms: _409  and  _412
REMARK  168  A    between atoms: _412  and  _413
REMARK  169  A    between atoms: _418  and  _419
REMARK  170  A    between atoms: _421  and  _423
REMARK  171  A    between atoms: _423  and  _424
REMARK  172  A    between atoms: _423  and  _426
REMARK  173  A    between atoms: _426  and  _427
REMARK  174  A    between atoms: _427  and  _428
REMARK  175  A    between atoms: _428  and  _429
REMARK  176  A    between atoms: _429  and  _430
REMARK  177  A    between atoms: _434  and  _436
REMARK  178  A    between atoms: _436  and  _437
REMARK  179  A    between atoms: _436  and  _439
REMARK  180  A    between atoms: _439  and  _440
REMARK  181  A    between atoms: _445  and  _446
REMARK  182  A    between atoms: _448  and  _450
REMARK  183  A    between atoms: _450  and  _451
REMARK  184  A    between atoms: _450  and  _453
REMARK  185  A    between atoms: _453  and  _454
REMARK  186  A    between atoms: _454  and  _455
REMARK  187  A    between atoms: _455  and  _456
REMARK  188  A    between atoms: _465  and  _467
REMARK  189  A    between atoms: _467  and  _468
REMARK  190  A    between atoms: _467  and  _470
REMARK  191  A    between atoms: _473  and  _475
REMARK  192  A    between atoms: _475  and  _476
REMARK  193  A    between atoms: _475  and  _478
REMARK  194  A    between atoms: _478  and  _479
REMARK  195  A    between atoms: _482  and  _484
REMARK  196  A    between atoms: _484  and  _485
REMARK  197  A    between atoms: _484  and  _487
REMARK  198  A    between atoms: _490  and  _492
REMARK  199  A    between atoms: _492  and  _493
REMARK  200  A    between atoms: _492  and  _495
REMARK  201  A    between atoms: _495  and  _496
REMARK  202  A    between atoms: _499  and  _501
REMARK  203  A    between atoms: _501  and  _502
REMARK  204  A    between atoms: _505  and  _507
REMARK  205  A    between atoms: _507  and  _508
REMARK  206  A    between atoms: _510  and  _512
REMARK  207  A    between atoms: _512  and  _513
REMARK  208  A    between atoms: _512  and  _515
REMARK  209  A    between atoms: _515  and  _516
REMARK  210  A    between atoms: _521  and  _523
REMARK  211  A    between atoms: _523  and  _524
REMARK  212  A    between atoms: _523  and  _526
REMARK  213  A    between atoms: _526  and  _527
REMARK  214  A    between atoms: _530  and  _532
REMARK  215  A    between atoms: _532  and  _533
REMARK  216  A    between atoms: _532  and  _535
REMARK  217  A    between atoms: _535  and  _536
REMARK  218  A    between atoms: _539  and  _541
REMARK  219  A    between atoms: _541  and  _542
REMARK  220  A    between atoms: _541  and  _544
REMARK  221  A    between atoms: _544  and  _545
REMARK  222  A    between atoms: _548  and  _550
REMARK  223  A    between atoms: _550  and  _551
REMARK  224  A    between atoms: _550  and  _553
REMARK  225  A    between atoms: _553  and  _554
REMARK  226  A    between atoms: _554  and  _555
REMARK  227  A    between atoms: _560  and  _562
REMARK  228  A    between atoms: _562  and  _563
REMARK  229  A    between atoms: _562  and  _565
REMARK  230  A    between atoms: _565  and  _566
REMARK  231  A    between atoms: _569  and  _571
REMARK  232  A    between atoms: _571  and  _572
REMARK  233  A    between atoms: _571  and  _574
REMARK  234  A    between atoms: _574  and  _575
REMARK  235  A    between atoms: _580  and  _582
REMARK  236  A    between atoms: _582  and  _583
REMARK  237  A    between atoms: _582  and  _585
REMARK  238  A    between atoms: _585  and  _586
REMARK  239  A    between atoms: _588  and  _590
REMARK  240  A    between atoms: _590  and  _591
REMARK  241  A    between atoms: _590  and  _593
REMARK  242  A    between atoms: _593  and  _594
REMARK  243  A    between atoms: _594  and  _595
REMARK  244  A    between atoms: _600  and  _602
REMARK  245  A    between atoms: _602  and  _603
REMARK  246  A    between atoms: _602  and  _605
REMARK  247  A    between atoms: _605  and  _606
REMARK  248  A    between atoms: _611  and  _612
REMARK  249  A    between atoms: _614  and  _616
REMARK  250  A    between atoms: _616  and  _617
REMARK  251  A    between atoms: _616  and  _619
REMARK  252  A    between atoms: _619  and  _620
REMARK  253  A    between atoms: _620  and  _621
REMARK  254  A    between atoms: _621  and  _622
REMARK  255  A    between atoms: _631  and  _633
REMARK  256  A    between atoms: _633  and  _634
REMARK  257  A    between atoms: _633  and  _636
REMARK  258  A    between atoms: _636  and  _637
REMARK  259  A    between atoms: _640  and  _642
REMARK  260  A    between atoms: _642  and  _643
REMARK  261  A    between atoms: _642  and  _645
REMARK  262  A    between atoms: _647  and  _649
REMARK  263  A    between atoms: _649  and  _650
REMARK  264  A    between atoms: _649  and  _652
REMARK  265  A    between atoms: _652  and  _653
REMARK  266  A    between atoms: _653  and  _654
REMARK  267  A    between atoms: _654  and  _655
REMARK  268  A    between atoms: _655  and  _656
REMARK  269  A    between atoms: _660  and  _662
REMARK  270  A    between atoms: _662  and  _663
REMARK  271  A    between atoms: _662  and  _665
REMARK  272  A    between atoms: _665  and  _666
REMARK  273  A    between atoms: _669  and  _671
REMARK  274  A    between atoms: _671  and  _672
REMARK  275  A    between atoms: _671  and  _674
REMARK  276  A    between atoms: _674  and  _675
REMARK  277  A    between atoms: _678  and  _680
REMARK  278  A    between atoms: _680  and  _681
REMARK  279  A    between atoms: _680  and  _683
REMARK  280  A    between atoms: _686  and  _688
REMARK  281  A    between atoms: _688  and  _689
REMARK  282  A    between atoms: _688  and  _691
REMARK  283  A    between atoms: _691  and  _692
REMARK  284  A    between atoms: _695  and  _697
REMARK  285  A    between atoms: _697  and  _698
REMARK  286  A    between atoms: _697  and  _700
REMARK  287  A    between atoms: _700  and  _701
REMARK                            x       y       z     vdW  Elec       q    Type
REMARK                         _______ _______ _______ _____ _____    ______ ____
ROOT
ATOM      1  CB  PHE A   1       7.360  14.955  26.161  0.00  0.00    +0.051 C 
ENDROOT
BRANCH   1   2
ATOM      2  CG  PHE A   1       8.002  14.466  27.446  0.00  0.00    -0.020 A 
ATOM      3  CD2 PHE A   1       7.544  13.339  28.100  0.00  0.00    -0.004 A 
ATOM      4  CE2 PHE A   1       8.174  12.885  29.267  0.00  0.00    -0.000 A 
ATOM      5  CZ  PHE A   1       9.266  13.580  29.770  0.00  0.00    -0.000 A 
ATOM      6  CE1 PHE A   1       9.724  14.705  29.125  0.00  0.00    -0.000 A 
ATOM      7  CD1 PHE A   1       9.098  15.152  27.965  0.00  0.00    -0.004 A 
ENDBRANCH   1   2
BRANCH   1   8
ATOM      8  CA  PHE A   1       6.537  13.892  25.393  0.00  0.00    +0.137 C 
BRANCH   8   9
ATOM      9  N   PHE A   1       7.371  12.736  25.068  0.00  0.00    -0.239 NA
ATOM     10  H   PHE A   1       8.404  12.795  25.172  0.00  0.00    +0.142 HD
ENDBRANCH   8   9
BRANCH   8  11
ATOM     11  C   PHE A   1       6.026  14.570  24.110  0.00  0.00    +0.224 C 
ATOM     12  O   PHE A   1       6.542  14.366  23.042  0.00  0.00    -0.287 OA
ENDBRANCH   8  11
ENDBRANCH   1   8
TORSDOF 4
REMARK  Name = ../refined-set-2016/1ie9/1ie9_pocket.pdb
REMARK  287 active torsions:
REMARK  status: ('A' for Active; 'I' for Inactive)
REMARK    1  A    between atoms: _1  and  _3
REMARK    2  A    between atoms: _3  and  _4
REMARK    3  A    between atoms: _3  and  _6
REMARK    4  A    between atoms: _6  and  _7
REMARK    5  A    between atoms: _10  and  _12
REMARK    6  A    between atoms: _12  and  _13
REMARK    7  A    between atoms: _12  and  _15
REMARK    8  A    between atoms: _15  and  _16
REMARK    9  A    between atoms: _21  and  _22
REMARK   10  A    between atoms: _24  and  _26
REMARK   11  A    between atoms: _26  and  _27
REMARK   12  A    between atoms: _26  and  _29
REMARK   13  A    between atoms: _29  and  _30
REMARK   14  A    between atoms: _34  and  _35
REMARK   15  A    between atoms: _40  and  _42
REMARK   16  A    between atoms: _42  and  _43
REMARK   17  A    between atoms: _42  and  _45
REMARK   18  A    between atoms: _45  and  _46
REMARK   19  A    between atoms: _51  and  _52
REMARK   20  A    between atoms: _54  and  _56
REMARK   21  A    between atoms: _56  and  _57
REMARK   22  A    between atoms: _56  and  _59
REMARK   23  A    between atoms: _59  and  _60
REMARK   24  A    between atoms: _66  and  _68
REMARK   25  A    between atoms: _68  and  _69
REMARK   26  A    between atoms: _68  and  _71
REMARK   27  A    between atoms: _71  and  _72
REMARK   28  A    between atoms: _78  and  _80
REMARK   29  A    between atoms: _80  and  _81
REMARK   30  A    between atoms: _80  and  _83
REMARK   31  A    between atoms: _83  and  _84
REMARK   32  A    between atoms: _84  and  _85
REMARK   33  A    between atoms: _85  and  _86
REMARK   34  A    between atoms: _95  and  _97
REMARK   35  A    between atoms: _97  and  _98
REMARK   36  A    between atoms: _97  and  _100
REMARK   37  A    between atoms: _100  and  _101
REMARK   38  A    between atoms: _104  and  _106
REMARK   39  A    between atoms: _106  and  _107
REMARK   40  A    between atoms: _106  and  _109
REMARK   41  A    between atoms: _109  and  _110
REMARK   42  A    between atoms: _110  and  _111
REMARK   43  A    between atoms: _113  and  _115
REMARK   44  A    between atoms: _115  and  _116
REMARK   45  A    between atoms: _115  and  _118
REMARK   46  A    between atoms: _118  and  _119
REMARK   47  A    between atoms: _123  and  _124
REMARK   48  A    between atoms: _129  and  _131
REMARK   49  A    between atoms: _131  and  _132
REMARK   50  A    between atoms: _131  and  _134
REMARK   51  A    between atoms: _134  and  _135
REMARK   52  A    between atoms: _140  and  _142
REMARK   53  A    between atoms: _142  and  _143
REMARK   54  A    between atoms: _142  and  _145
REMARK   55  A    between atoms: _145  and  _146
REMARK   56  A    between atoms: _149  and  _151
REMARK   57  A    between atoms: _151  and  _152
REMARK   58  A    between atoms: _155  and  _157
REMARK   59  A    between atoms: _157  and  _158
REMARK   60  A    between atoms: _157  and  _160
REMARK   61  A    between atoms: _160  and  _161
REMARK   62  A    between atoms: _164  and  _166
REMARK   63  A    between atoms: _166  and  _167
REMARK   64  A    between atoms: _166  and  _169
REMARK   65  A    between atoms: _169  and  _170
REMARK   66  A    between atoms: _173  and  _175
REMARK   67  A    between atoms: _175  and  _176
REMARK   68  A    between atoms: _175  and  _178
REMARK   69  A    between atoms: _181  and  _183
REMARK   70  A    between atoms: _183  and  _184
REMARK   71  A    between atoms: _183  and  _186
REMARK   72  A    between atoms: _186  and  _187
REMARK   73  A    between atoms: _189  and  _191
REMARK   74  A    between atoms: _191  and  _192
REMARK   75  A    between atoms: _191  and  _194
REMARK   76  A    between atoms: _194  and  _195
REMARK   77  A    between atoms: _200  and  _201
REMARK   78  A    between atoms: _203  and  _205
REMARK   79  A    between atoms: _205  and  _206
REMARK   80  A    between atoms: _205  and  _208
REMARK   81  A    between atoms: _208  and  _209
REMARK   82  A    between atoms: _211  and  _213
REMARK   83  A    between atoms: _213  and  _214
REMARK   84  A    between atoms: _213  and  _216
REMARK   85  A    between atoms: _216  and  _217
REMARK   86  A    between atoms: _220  and  _222
REMARK   87  A    between atoms: _222  and  _223
REMARK   88  A    between atoms: _222  and  _225
REMARK   89  A    between atoms: _225  and  _226
REMARK   90  A    between atoms: _226  and  _227
REMARK   91  A    between atoms: _227  and  _228
REMARK   92  A    between atoms: _228  and  _229
REMARK   93  A    between atoms: _233  and  _235
REMARK   94  A    between atoms: _235  and  _236
REMARK   95  A    between atoms: _235  and  _238
REMARK   96  A    between atoms: _241  and  _243
REMARK   97  A    between atoms: _243  and  _244
REMARK   98  A    between atoms: _247  and  _249
REMARK   99  A    between atoms: _249  and  _250
REMARK  100  A    between atoms: _249  and  _252
REMARK  101  A    between atoms: _252  and  _253
REMARK  102  A    between atoms: _256  and  _258
REMARK  103  A    between atoms: _258  and  _259
REMARK  104  A    between atoms: _258  and  _261
REMARK  105  A    between atoms: _261  and  _262
REMARK  106  A    between atoms: _262  and  _263
REMARK  107  A    between atoms: _266  and  _268
REMARK  108  A    between atoms: _268  and  _269
REMARK  109  A    between atoms: _268  and  _271
REMARK  110  A    between atoms: _274  and  _276
REMARK  111  A    between atoms: _276  and  _277
REMARK  112  A    between atoms: _276  and  _279
REMARK  113  A    between atoms: _279  and  _280
REMARK  114  A    between atoms: _283  and  _285
REMARK  115  A    between atoms: _285  and  _286
REMARK  116  A    between atoms: _285  and  _288
REMARK  117  A    between atoms: _288  and  _289
REMARK  118  A    between atoms: _289  and  _290
REMARK  119  A    between atoms: _292  and  _294
REMARK  120  A    between atoms: _294  and  _295
REMARK  121  A    between atoms: _294  and  _297
REMARK  122  A    between atoms: _297  and  _298
REMARK  123  A    between atoms: _301  and  _303
REMARK  124  A    between atoms: _303  and  _304
REMARK  125  A    between atoms: _303  and  _306
REMARK  126  A    between atoms: _306  and  _307
REMARK  127  A    between atoms: _307  and  _308
REMARK  128  A    between atoms: _308  and  _309
REMARK  129  A    between atoms: _318  and  _320
REMARK  130  A    between atoms: _320  and  _321
REMARK  131  A    between atoms: _320  and  _323
REMARK  132  A    between atoms: _323  and  _324
REMARK  133  A    between atoms: _326  and  _328
REMARK  134  A    between atoms: _328  and  _329
REMARK  135  A    between atoms: _328  and  _331
REMARK  136  A    between atoms: _331  and  _332
REMARK  137  A    between atoms: _337  and  _339
REMARK  138  A    between atoms: _339  and  _340
REMARK  139  A    between atoms: _339  and  _342
REMARK  140  A    between atoms: _342  and  _343
REMARK  141  A    between atoms: _343  and  _344
REMARK  142  A    between atoms: _347  and  _349
REMARK  143  A    between atoms: _349  and  _350
REMARK  144  A    between atoms: _349  and  _352
REMARK  145  A    between atoms: _352  and  _353
REMARK  146  A    between atoms: _355  and  _357
REMARK  147  A    between atoms: _357  and  _358
REMARK  148  A    between atoms: _357  and  _360
REMARK  149  A    between atoms: _360  and  _361
REMARK  150  A    between atoms: _367  and  _369
REMARK  151  A    between atoms: _369  and  _370
REMARK  152  A    between atoms: _369  and  _372
REMARK  153  A    between atoms: _372  and  _373
REMARK  154  A    between atoms: _375  and  _377
REMARK  155  A    between atoms: _377  and  _378
REMARK  156  A    between atoms: _377  and  _380
REMARK  157  A    between atoms: _380  and  _381
REMARK  158  A    between atoms: _391  and  _393
REMARK  159  A    between atoms: _393  and  _394
REMARK  160  A    between atoms: _393  and  _396
REMARK  161  A    between atoms: _396  and  _397
REMARK  162  A    between atoms: _400  and  _402
REMARK  163  A    between atoms: _402  and  _403
REMARK  164  A    between atoms: _402  and  _405
REMARK  165  A    between atoms: _407  and  _409
REMARK  166  A    between atoms: _409  and  _410
REMARK  167  A    between atoms: _409  and  _412
REMARK  168  A    between atoms: _412  and  _413
REMARK  169  A    between atoms: _418  and  _419
REMARK  170  A    between atoms: _421  and  _423
REMARK  171  A    between atoms: _423  and  _424
REMARK  172  A    between atoms: _423  and  _426
REMARK  173  A    between atoms: _426  and  _427
REMARK  174  A    between atoms: _427  and  _428
REMARK  175  A    between atoms: _428  and  _429
REMARK  176  A    between atoms: _429  and  _430
REMARK  177  A    between atoms: _434  and  _436
REMARK  178  A    between atoms: _436  and  _437
REMARK  179  A    between atoms: _436  and  _439
REMARK  180  A    between atoms: _439  and  _440
REMARK  181  A    between atoms: _445  and  _446
REMARK  182  A    between atoms: _448  and  _450
REMARK  183  A    between atoms: _450  and  _451
REMARK  184  A    between atoms: _450  and  _453
REMARK  185  A    between atoms: _453  and  _454
REMARK  186  A    between atoms: _454  and  _455
REMARK  187  A    between atoms: _455  and  _456
REMARK  188  A    between atoms: _465  and  _467
REMARK  189  A    between atoms: _467  and  _468
REMARK  190  A    between atoms: _467  and  _470
REMARK  191  A    between atoms: _473  and  _475
REMARK  192  A    between atoms: _475  and  _476
REMARK  193  A    between atoms: _475  and  _478
REMARK  194  A    between atoms: _478  and  _479
REMARK  195  A    between atoms: _482  and  _484
REMARK  196  A    between atoms: _484  and  _485
REMARK  197  A    between atoms: _484  and  _487
REMARK  198  A    between atoms: _490  and  _492
REMARK  199  A    between atoms: _492  and  _493
REMARK  200  A    between atoms: _492  and  _495
REMARK  201  A    between atoms: _495  and  _496
REMARK  202  A    between atoms: _499  and  _501
REMARK  203  A    between atoms: _501  and  _502
REMARK  204  A    between atoms: _505  and  _507
REMARK  205  A    between atoms: _507  and  _508
REMARK  206  A    between atoms: _510  and  _512
REMARK  207  A    between atoms: _512  and  _513
REMARK  208  A    between atoms: _512  and  _515
REMARK  209  A    between atoms: _515  and  _516
REMARK  210  A    between atoms: _521  and  _523
REMARK  211  A    between atoms: _523  and  _524
REMARK  212  A    between atoms: _523  and  _526
REMARK  213  A    between atoms: _526  and  _527
REMARK  214  A    between atoms: _530  and  _532
REMARK  215  A    between atoms: _532  and  _533
REMARK  216  A    between atoms: _532  and  _535
REMARK  217  A    between atoms: _535  and  _536
REMARK  218  A    between atoms: _539  and  _541
REMARK  219  A    between atoms: _541  and  _542
REMARK  220  A    between atoms: _541  and  _544
REMARK  221  A    between atoms: _544  and  _545
REMARK  222  A    between atoms: _548  and  _550
REMARK  223  A    between atoms: _550  and  _551
REMARK  224  A    between atoms: _550  and  _553
REMARK  225  A    between atoms: _553  and  _554
REMARK  226  A    between atoms: _554  and  _555
REMARK  227  A    between atoms: _560  and  _562
REMARK  228  A    between atoms: _562  and  _563
REMARK  229  A    between atoms: _562  and  _565
REMARK  230  A    between atoms: _565  and  _566
REMARK  231  A    between atoms: _569  and  _571
REMARK  232  A    between atoms: _571  and  _572
REMARK  233  A    between atoms: _571  and  _574
REMARK  234  A    between atoms: _574  and  _575
REMARK  235  A    between atoms: _580  and  _582
REMARK  236  A    between atoms: _582  and  _583
REMARK  237  A    between atoms: _582  and  _585
REMARK  238  A    between atoms: _585  and  _586
REMARK  239  A    between atoms: _588  and  _590
REMARK  240  A    between atoms: _590  and  _591
REMARK  241  A    between atoms: _590  and  _593
REMARK  242  A    between atoms: _593  and  _594
REMARK  243  A    between atoms: _594  and  _595
REMARK  244  A    between atoms: _600  and  _602
REMARK  245  A    between atoms: _602  and  _603
REMARK  246  A    between atoms: _602  and  _605
REMARK  247  A    between atoms: _605  and  _606
REMARK  248  A    between atoms: _611  and  _612
REMARK  249  A    between atoms: _614  and  _616
REMARK  250  A    between atoms: _616  and  _617
REMARK  251  A    between atoms: _616  and  _619
REMARK  252  A    between atoms: _619  and  _620
REMARK  253  A    between atoms: _620  and  _621
REMARK  254  A    between atoms: _621  and  _622
REMARK  255  A    between atoms: _631  and  _633
REMARK  256  A    between atoms: _633  and  _634
REMARK  257  A    between atoms: _633  and  _636
REMARK  258  A    between atoms: _636  and  _637
REMARK  259  A    between atoms: _640  and  _642
REMARK  260  A    between atoms: _642  and  _643
REMARK  261  A    between atoms: _642  and  _645
REMARK  262  A    between atoms: _647  and  _649
REMARK  263  A    between atoms: _649  and  _650
REMARK  264  A    between atoms: _649  and  _652
REMARK  265  A    between atoms: _652  and  _653
REMARK  266  A    between atoms: _653  and  _654
REMARK  267  A    between atoms: _654  and  _655
REMARK  268  A    between atoms: _655  and  _656
REMARK  269  A    between atoms: _660  and  _662
REMARK  270  A    between atoms: _662  and  _663
REMARK  271  A    between atoms: _662  and  _665
REMARK  272  A    between atoms: _665  and  _666
REMARK  273  A    between atoms: _669  and  _671
REMARK  274  A    between atoms: _671  and  _672
REMARK  275  A    between atoms: _671  and  _674
REMARK  276  A    between atoms: _674  and  _675
REMARK  277  A    between atoms: _678  and  _680
REMARK  278  A    between atoms: _680  and  _681
REMARK  279  A    between atoms: _680  and  _683
REMARK  280  A    between atoms: _686  and  _688
REMARK  281  A    between atoms: _688  and  _689
REMARK  282  A    between atoms: _688  and  _691
REMARK  283  A    between atoms: _691  and  _692
REMARK  284  A    between atoms: _695  and  _697
REMARK  285  A    between atoms: _697  and  _698
REMARK  286  A    between atoms: _697  and  _700
REMARK  287  A    between atoms: _700  and  _701
REMARK                            x       y       z     vdW  Elec       q    Type
REMARK                         _______ _______ _______ _____ _____    ______ ____
ROOT
ATOM      1  NE  ARG A   1      13.348  24.928  21.811  0.00  0.00    -0.265 N 
ATOM      2  HE  ARG A   1      13.487  25.653  22.544  0.00  0.00    +0.259 HD
ATOM      3  CZ  ARG A   1      13.685  23.674  22.089  0.00  0.00    +0.342 C 
ATOM      4  NH2 ARG A   1      14.181  23.370  23.280  0.00  0.00    -0.292 N 
ATOM      5 HH21 ARG A   1      14.306  24.113  23.996  0.00  0.00    +0.255 HD
ATOM      6 HH22 ARG A   1      14.445  22.388  23.498  0.00  0.00    +0.255 HD
ATOM      7  NH1 ARG A   1      13.516  22.722  21.171  0.00  0.00    -0.292 N 
ATOM      8 HH11 ARG A   1      13.779  21.739  21.386  0.00  0.00    +0.255 HD
ATOM      9 HH12 ARG A   1      13.121  22.962  20.239  0.00  0.00    +0.255 HD
ENDROOT
BRANCH   1  10
ATOM     10  CD  ARG A   1      12.793  25.335  20.527  0.00  0.00    +0.174 C 
BRANCH  10  11
ATOM     11  CG  ARG A   1      11.983  26.578  20.642  0.00  0.00    +0.045 C 
BRANCH  11  12
ATOM     12  CB  ARG A   1      11.486  27.014  19.284  0.00  0.00    +0.029 C 
BRANCH  12  13
ATOM     13  CA  ARG A   1       9.968  27.095  19.167  0.00  0.00    +0.133 C 
BRANCH  13  14
ATOM     14  N   ARG A   1       9.420  25.776  18.879  0.00  0.00    -0.239 NA
ATOM     15  H   ARG A   1       9.713  25.285  18.010  0.00  0.00    +0.142 HD
ENDBRANCH  13  14
BRANCH  13  16
ATOM     16  C   ARG A   1       9.607  28.127  18.112  0.00  0.00    +0.224 C 
ATOM     17  O   ARG A   1      10.263  28.227  17.101  0.00  0.00    -0.287 OA
ENDBRANCH  13  16
ENDBRANCH  12  13
ENDBRANCH  11  12
ENDBRANCH  10  11
ENDBRANCH   1  10
TORSDOF 6
REMARK  Name = ../refined-set-2016/1ie9/1ie9_pocket.pdb
REMARK  287 active torsions:
REMARK  status: ('A' for Active; 'I' for Inactive)
REMARK    1  A    between atoms: _1  and  _3
REMARK    2  A    between atoms: _3  and  _4
REMARK    3  A    between atoms: _3  and  _6
REMARK    4  A    between atoms: _6  and  _7
REMARK    5  A    between atoms: _10  and  _12
REMARK    6  A    between atoms: _12  and  _13
REMARK    7  A    between atoms: _12  and  _15
REMARK    8  A    between atoms: _15  and  _16
REMARK    9  A    between atoms: _21  and  _22
REMARK   10  A    between atoms: _24  and  _26
REMARK   11  A    between atoms: _26  and  _27
REMARK   12  A    between atoms: _26  and  _29
REMARK   13  A    between atoms: _29  and  _30
REMARK   14  A    between atoms: _34  and  _35
REMARK   15  A    between atoms: _40  and  _42
REMARK   16  A    between atoms: _42  and  _43
REMARK   17  A    between atoms: _42  and  _45
REMARK   18  A    between atoms: _45  and  _46
REMARK   19  A    between atoms: _51  and  _52
REMARK   20  A    between atoms: _54  and  _56
REMARK   21  A    between atoms: _56  and  _57
REMARK   22  A    between atoms: _56  and  _59
REMARK   23  A    between atoms: _59  and  _60
REMARK   24  A    between atoms: _66  and  _68
REMARK   25  A    between atoms: _68  and  _69
REMARK   26  A    between atoms: _68  and  _71
REMARK   27  A    between atoms: _71  and  _72
REMARK   28  A    between atoms: _78  and  _80
REMARK   29  A    between atoms: _80  and  _81
REMARK   30  A    between atoms: _80  and  _83
REMARK   31  A    between atoms: _83  and  _84
REMARK   32  A    between atoms: _84  and  _85
REMARK   33  A    between atoms: _85  and  _86
REMARK   34  A    between atoms: _95  and  _97
REMARK   35  A    between atoms: _97  and  _98
REMARK   36  A    between atoms: _97  and  _100
REMARK   37  A    between atoms: _100  and  _101
REMARK   38  A    between atoms: _104  and  _106
REMARK   39  A    between atoms: _106  and  _107
REMARK   40  A    between atoms: _106  and  _109
REMARK   41  A    between atoms: _109  and  _110
REMARK   42  A    between atoms: _110  and  _111
REMARK   43  A    between atoms: _113  and  _115
REMARK   44  A    between atoms: _115  and  _116
REMARK   45  A    between atoms: _115  and  _118
REMARK   46  A    between atoms: _118  and  _119
REMARK   47  A    between atoms: _123  and  _124
REMARK   48  A    between atoms: _129  and  _131
REMARK   49  A    between atoms: _131  and  _132
REMARK   50  A    between atoms: _131  and  _134
REMARK   51  A    between atoms: _134  and  _135
REMARK   52  A    between atoms: _140  and  _142
REMARK   53  A    between atoms: _142  and  _143
REMARK   54  A    between atoms: _142  and  _145
REMARK   55  A    between atoms: _145  and  _146
REMARK   56  A    between atoms: _149  and  _151
REMARK   57  A    between atoms: _151  and  _152
REMARK   58  A    between atoms: _155  and  _157
REMARK   59  A    between atoms: _157  and  _158
REMARK   60  A    between atoms: _157  and  _160
REMARK   61  A    between atoms: _160  and  _161
REMARK   62  A    between atoms: _164  and  _166
REMARK   63  A    between atoms: _166  and  _167
REMARK   64  A    between atoms: _166  and  _169
REMARK   65  A    between atoms: _169  and  _170
REMARK   66  A    between atoms: _173  and  _175
REMARK   67  A    between atoms: _175  and  _176
REMARK   68  A    between atoms: _175  and  _178
REMARK   69  A    between atoms: _181  and  _183
REMARK   70  A    between atoms: _183  and  _184
REMARK   71  A    between atoms: _183  and  _186
REMARK   72  A    between atoms: _186  and  _187
REMARK   73  A    between atoms: _189  and  _191
REMARK   74  A    between atoms: _191  and  _192
REMARK   75  A    between atoms: _191  and  _194
REMARK   76  A    between atoms: _194  and  _195
REMARK   77  A    between atoms: _200  and  _201
REMARK   78  A    between atoms: _203  and  _205
REMARK   79  A    between atoms: _205  and  _206
REMARK   80  A    between atoms: _205  and  _208
REMARK   81  A    between atoms: _208  and  _209
REMARK   82  A    between atoms: _211  and  _213
REMARK   83  A    between atoms: _213  and  _214
REMARK   84  A    between atoms: _213  and  _216
REMARK   85  A    between atoms: _216  and  _217
REMARK   86  A    between atoms: _220  and  _222
REMARK   87  A    between atoms: _222  and  _223
REMARK   88  A    between atoms: _222  and  _225
REMARK   89  A    between atoms: _225  and  _226
REMARK   90  A    between atoms: _226  and  _227
REMARK   91  A    between atoms: _227  and  _228
REMARK   92  A    between atoms: _228  and  _229
REMARK   93  A    between atoms: _233  and  _235
REMARK   94  A    between atoms: _235  and  _236
REMARK   95  A    between atoms: _235  and  _238
REMARK   96  A    between atoms: _241  and  _243
REMARK   97  A    between atoms: _243  and  _244
REMARK   98  A    between atoms: _247  and  _249
REMARK   99  A    between atoms: _249  and  _250
REMARK  100  A    between atoms: _249  and  _252
REMARK  101  A    between atoms: _252  and  _253
REMARK  102  A    between atoms: _256  and  _258
REMARK  103  A    between atoms: _258  and  _259
REMARK  104  A    between atoms: _258  and  _261
REMARK  105  A    between atoms: _261  and  _262
REMARK  106  A    between atoms: _262  and  _263
REMARK  107  A    between atoms: _266  and  _268
REMARK  108  A    between atoms: _268  and  _269
REMARK  109  A    between atoms: _268  and  _271
REMARK  110  A    between atoms: _274  and  _276
REMARK  111  A    between atoms: _276  and  _277
REMARK  112  A    between atoms: _276  and  _279
REMARK  113  A    between atoms: _279  and  _280
REMARK  114  A    between atoms: _283  and  _285
REMARK  115  A    between atoms: _285  and  _286
REMARK  116  A    between atoms: _285  and  _288
REMARK  117  A    between atoms: _288  and  _289
REMARK  118  A    between atoms: _289  and  _290
REMARK  119  A    between atoms: _292  and  _294
REMARK  120  A    between atoms: _294  and  _295
REMARK  121  A    between atoms: _294  and  _297
REMARK  122  A    between atoms: _297  and  _298
REMARK  123  A    between atoms: _301  and  _303
REMARK  124  A    between atoms: _303  and  _304
REMARK  125  A    between atoms: _303  and  _306
REMARK  126  A    between atoms: _306  and  _307
REMARK  127  A    between atoms: _307  and  _308
REMARK  128  A    between atoms: _308  and  _309
REMARK  129  A    between atoms: _318  and  _320
REMARK  130  A    between atoms: _320  and  _321
REMARK  131  A    between atoms: _320  and  _323
REMARK  132  A    between atoms: _323  and  _324
REMARK  133  A    between atoms: _326  and  _328
REMARK  134  A    between atoms: _328  and  _329
REMARK  135  A    between atoms: _328  and  _331
REMARK  136  A    between atoms: _331  and  _332
REMARK  137  A    between atoms: _337  and  _339
REMARK  138  A    between atoms: _339  and  _340
REMARK  139  A    between atoms: _339  and  _342
REMARK  140  A    between atoms: _342  and  _343
REMARK  141  A    between atoms: _343  and  _344
REMARK  142  A    between atoms: _347  and  _349
REMARK  143  A    between atoms: _349  and  _350
REMARK  144  A    between atoms: _349  and  _352
REMARK  145  A    between atoms: _352  and  _353
REMARK  146  A    between atoms: _355  and  _357
REMARK  147  A    between atoms: _357  and  _358
REMARK  148  A    between atoms: _357  and  _360
REMARK  149  A    between atoms: _360  and  _361
REMARK  150  A    between atoms: _367  and  _369
REMARK  151  A    between atoms: _369  and  _370
REMARK  152  A    between atoms: _369  and  _372
REMARK  153  A    between atoms: _372  and  _373
REMARK  154  A    between atoms: _375  and  _377
REMARK  155  A    between atoms: _377  and  _378
REMARK  156  A    between atoms: _377  and  _380
REMARK  157  A    between atoms: _380  and  _381
REMARK  158  A    between atoms: _391  and  _393
REMARK  159  A    between atoms: _393  and  _394
REMARK  160  A    between atoms: _393  and  _396
REMARK  161  A    between atoms: _396  and  _397
REMARK  162  A    between atoms: _400  and  _402
REMARK  163  A    between atoms: _402  and  _403
REMARK  164  A    between atoms: _402  and  _405
REMARK  165  A    between atoms: _407  and  _409
REMARK  166  A    between atoms: _409  and  _410
REMARK  167  A    between atoms: _409  and  _412
REMARK  168  A    between atoms: _412  and  _413
REMARK  169  A    between atoms: _418  and  _419
REMARK  170  A    between atoms: _421  and  _423
REMARK  171  A    between atoms: _423  and  _424
REMARK  172  A    between atoms: _423  and  _426
REMARK  173  A    between atoms: _426  and  _427
REMARK  174  A    between atoms: _427  and  _428
REMARK  175  A    between atoms: _428  and  _429
REMARK  176  A    between atoms: _429  and  _430
REMARK  177  A    between atoms: _434  and  _436
REMARK  178  A    between atoms: _436  and  _437
REMARK  179  A    between atoms: _436  and  _439
REMARK  180  A    between atoms: _439  and  _440
REMARK  181  A    between atoms: _445  and  _446
REMARK  182  A    between atoms: _448  and  _450
REMARK  183  A    between atoms: _450  and  _451
REMARK  184  A    between atoms: _450  and  _453
REMARK  185  A    between atoms: _453  and  _454
REMARK  186  A    between atoms: _454  and  _455
REMARK  187  A    between atoms: _455  and  _456
REMARK  188  A    between atoms: _465  and  _467
REMARK  189  A    between atoms: _467  and  _468
REMARK  190  A    between atoms: _467  and  _470
REMARK  191  A    between atoms: _473  and  _475
REMARK  192  A    between atoms: _475  and  _476
REMARK  193  A    between atoms: _475  and  _478
REMARK  194  A    between atoms: _478  and  _479
REMARK  195  A    between atoms: _482  and  _484
REMARK  196  A    between atoms: _484  and  _485
REMARK  197  A    between atoms: _484  and  _487
REMARK  198  A    between atoms: _490  and  _492
REMARK  199  A    between atoms: _492  and  _493
REMARK  200  A    between atoms: _492  and  _495
REMARK  201  A    between atoms: _495  and  _496
REMARK  202  A    between atoms: _499  and  _501
REMARK  203  A    between atoms: _501  and  _502
REMARK  204  A    between atoms: _505  and  _507
REMARK  205  A    between atoms: _507  and  _508
REMARK  206  A    between atoms: _510  and  _512
REMARK  207  A    between atoms: _512  and  _513
REMARK  208  A    between atoms: _512  and  _515
REMARK  209  A    between atoms: _515  and  _516
REMARK  210  A    between atoms: _521  and  _523
REMARK  211  A    between atoms: _523  and  _524
REMARK  212  A    between atoms: _523  and  _526
REMARK  213  A    between atoms: _526  and  _527
REMARK  214  A    between atoms: _530  and  _532
REMARK  215  A    between atoms: _532  and  _533
REMARK  216  A    between atoms: _532  and  _535
REMARK  217  A    between atoms: _535  and  _536
REMARK  218  A    between atoms: _539  and  _541
REMARK  219  A    between atoms: _541  and  _542
REMARK  220  A    between atoms: _541  and  _544
REMARK  221  A    between atoms: _544  and  _545
REMARK  222  A    between atoms: _548  and  _550
REMARK  223  A    between atoms: _550  and  _551
REMARK  224  A    between atoms: _550  and  _553
REMARK  225  A    between atoms: _553  and  _554
REMARK  226  A    between atoms: _554  and  _555
REMARK  227  A    between atoms: _560  and  _562
REMARK  228  A    between atoms: _562  and  _563
REMARK  229  A    between atoms: _562  and  _565
REMARK  230  A    between atoms: _565  and  _566
REMARK  231  A    between atoms: _569  and  _571
REMARK  232  A    between atoms: _571  and  _572
REMARK  233  A    between atoms: _571  and  _574
REMARK  234  A    between atoms: _574  and  _575
REMARK  235  A    between atoms: _580  and  _582
REMARK  236  A    between atoms: _582  and  _583
REMARK  237  A    between atoms: _582  and  _585
REMARK  238  A    between atoms: _585  and  _586
REMARK  239  A    between atoms: _588  and  _590
REMARK  240  A    between atoms: _590  and  _591
REMARK  241  A    between atoms: _590  and  _593
REMARK  242  A    between atoms: _593  and  _594
REMARK  243  A    between atoms: _594  and  _595
REMARK  244  A    between atoms: _600  and  _602
REMARK  245  A    between atoms: _602  and  _603
REMARK  246  A    between atoms: _602  and  _605
REMARK  247  A    between atoms: _605  and  _606
REMARK  248  A    between atoms: _611  and  _612
REMARK  249  A    between atoms: _614  and  _616
REMARK  250  A    between atoms: _616  and  _617
REMARK  251  A    between atoms: _616  and  _619
REMARK  252  A    between atoms: _619  and  _620
REMARK  253  A    between atoms: _620  and  _621
REMARK  254  A    between atoms: _621  and  _622
REMARK  255  A    between atoms: _631  and  _633
REMARK  256  A    between atoms: _633  and  _634
REMARK  257  A    between atoms: _633  and  _636
REMARK  258  A    between atoms: _636  and  _637
REMARK  259  A    between atoms: _640  and  _642
REMARK  260  A    between atoms: _642  and  _643
REMARK  261  A    between atoms: _642  and  _645
REMARK  262  A    between atoms: _647  and  _649
REMARK  263  A    between atoms: _649  and  _650
REMARK  264  A    between atoms: _649  and  _652
REMARK  265  A    between atoms: _652  and  _653
REMARK  266  A    between atoms: _653  and  _654
REMARK  267  A    between atoms: _654  and  _655
REMARK  268  A    between atoms: _655  and  _656
REMARK  269  A    between atoms: _660  and  _662
REMARK  270  A    between atoms: _662  and  _663
REMARK  271  A    between atoms: _662  and  _665
REMARK  272  A    between atoms: _665  and  _666
REMARK  273  A    between atoms: _669  and  _671
REMARK  274  A    between atoms: _671  and  _672
REMARK  275  A    between atoms: _671  and  _674
REMARK  276  A    between atoms: _674  and  _675
REMARK  277  A    between atoms: _678  and  _680
REMARK  278  A    between atoms: _680  and  _681
REMARK  279  A    between atoms: _680  and  _683
REMARK  280  A    between atoms: _686  and  _688
REMARK  281  A    between atoms: _688  and  _689
REMARK  282  A    between atoms: _688  and  _691
REMARK  283  A    between atoms: _691  and  _692
REMARK  284  A    between atoms: _695  and  _697
REMARK  285  A    between atoms: _697  and  _698
REMARK  286  A    between atoms: _697  and  _700
REMARK  287  A    between atoms: _700  and  _701
REMARK                            x       y       z     vdW  Elec       q    Type
REMARK                         _______ _______ _______ _____ _____    ______ ____
ROOT
ATOM      1  CA  LEU A   1       2.531  28.858  24.109  0.00  0.00    +0.133 C 
ENDROOT
BRANCH   1   2
ATOM      2  N   LEU A   1       2.101  29.733  23.005  0.00  0.00    -0.239 NA
ATOM      3  H   LEU A   1       2.255  30.757  23.104  0.00  0.00    +0.142 HD
ENDBRANCH   1   2
BRANCH   1   4
ATOM      4  C   LEU A   1       3.173  27.630  23.463  0.00  0.00    +0.224 C 
ATOM      5  O   LEU A   1       2.912  26.520  23.841  0.00  0.00    -0.287 OA
ENDBRANCH   1   4
BRANCH   1   6
ATOM      6  CB  LEU A   1       1.331  28.471  25.007  0.00  0.00    +0.025 C 
BRANCH   6   7
ATOM      7  CG  LEU A   1       0.810  29.633  25.865  0.00  0.00    +0.002 C 
ATOM      8  CD2 LEU A   1       1.888  30.002  26.875  0.00  0.00    +0.000 C 
ATOM      9  CD1 LEU A   1      -0.495  29.274  26.558  0.00  0.00    +0.000 C 
ENDBRANCH   6   7
ENDBRANCH   1   6
TORSDOF 4
REMARK  Name = ../refined-set-2016/1ie9/1ie9_pocket.pdb
REMARK  287 active torsions:
REMARK  status: ('A' for Active; 'I' for Inactive)
REMARK    1  A    between atoms: _1  and  _3
REMARK    2  A    between atoms: _3  and  _4
REMARK    3  A    between atoms: _3  and  _6
REMARK    4  A    between atoms: _6  and  _7
REMARK    5  A    between atoms: _10  and  _12
REMARK    6  A    between atoms: _12  and  _13
REMARK    7  A    between atoms: _12  and  _15
REMARK    8  A    between atoms: _15  and  _16
REMARK    9  A    between atoms: _21  and  _22
REMARK   10  A    between atoms: _24  and  _26
REMARK   11  A    between atoms: _26  and  _27
REMARK   12  A    between atoms: _26  and  _29
REMARK   13  A    between atoms: _29  and  _30
REMARK   14  A    between atoms: _34  and  _35
REMARK   15  A    between atoms: _40  and  _42
REMARK   16  A    between atoms: _42  and  _43
REMARK   17  A    between atoms: _42  and  _45
REMARK   18  A    between atoms: _45  and  _46
REMARK   19  A    between atoms: _51  and  _52
REMARK   20  A    between atoms: _54  and  _56
REMARK   21  A    between atoms: _56  and  _57
REMARK   22  A    between atoms: _56  and  _59
REMARK   23  A    between atoms: _59  and  _60
REMARK   24  A    between atoms: _66  and  _68
REMARK   25  A    between atoms: _68  and  _69
REMARK   26  A    between atoms: _68  and  _71
REMARK   27  A    between atoms: _71  and  _72
REMARK   28  A    between atoms: _78  and  _80
REMARK   29  A    between atoms: _80  and  _81
REMARK   30  A    between atoms: _80  and  _83
REMARK   31  A    between atoms: _83  and  _84
REMARK   32  A    between atoms: _84  and  _85
REMARK   33  A    between atoms: _85  and  _86
REMARK   34  A    between atoms: _95  and  _97
REMARK   35  A    between atoms: _97  and  _98
REMARK   36  A    between atoms: _97  and  _100
REMARK   37  A    between atoms: _100  and  _101
REMARK   38  A    between atoms: _104  and  _106
REMARK   39  A    between atoms: _106  and  _107
REMARK   40  A    between atoms: _106  and  _109
REMARK   41  A    between atoms: _109  and  _110
REMARK   42  A    between atoms: _110  and  _111
REMARK   43  A    between atoms: _113  and  _115
REMARK   44  A    between atoms: _115  and  _116
REMARK   45  A    between atoms: _115  and  _118
REMARK   46  A    between atoms: _118  and  _119
REMARK   47  A    between atoms: _123  and  _124
REMARK   48  A    between atoms: _129  and  _131
REMARK   49  A    between atoms: _131  and  _132
REMARK   50  A    between atoms: _131  and  _134
REMARK   51  A    between atoms: _134  and  _135
REMARK   52  A    between atoms: _140  and  _142
REMARK   53  A    between atoms: _142  and  _143
REMARK   54  A    between atoms: _142  and  _145
REMARK   55  A    between atoms: _145  and  _146
REMARK   56  A    between atoms: _149  and  _151
REMARK   57  A    between atoms: _151  and  _152
REMARK   58  A    between atoms: _155  and  _157
REMARK   59  A    between atoms: _157  and  _158
REMARK   60  A    between atoms: _157  and  _160
REMARK   61  A    between atoms: _160  and  _161
REMARK   62  A    between atoms: _164  and  _166
REMARK   63  A    between atoms: _166  and  _167
REMARK   64  A    between atoms: _166  and  _169
REMARK   65  A    between atoms: _169  and  _170
REMARK   66  A    between atoms: _173  and  _175
REMARK   67  A    between atoms: _175  and  _176
REMARK   68  A    between atoms: _175  and  _178
REMARK   69  A    between atoms: _181  and  _183
REMARK   70  A    between atoms: _183  and  _184
REMARK   71  A    between atoms: _183  and  _186
REMARK   72  A    between atoms: _186  and  _187
REMARK   73  A    between atoms: _189  and  _191
REMARK   74  A    between atoms: _191  and  _192
REMARK   75  A    between atoms: _191  and  _194
REMARK   76  A    between atoms: _194  and  _195
REMARK   77  A    between atoms: _200  and  _201
REMARK   78  A    between atoms: _203  and  _205
REMARK   79  A    between atoms: _205  and  _206
REMARK   80  A    between atoms: _205  and  _208
REMARK   81  A    between atoms: _208  and  _209
REMARK   82  A    between atoms: _211  and  _213
REMARK   83  A    between atoms: _213  and  _214
REMARK   84  A    between atoms: _213  and  _216
REMARK   85  A    between atoms: _216  and  _217
REMARK   86  A    between atoms: _220  and  _222
REMARK   87  A    between atoms: _222  and  _223
REMARK   88  A    between atoms: _222  and  _225
REMARK   89  A    between atoms: _225  and  _226
REMARK   90  A    between atoms: _226  and  _227
REMARK   91  A    between atoms: _227  and  _228
REMARK   92  A    between atoms: _228  and  _229
REMARK   93  A    between atoms: _233  and  _235
REMARK   94  A    between atoms: _235  and  _236
REMARK   95  A    between atoms: _235  and  _238
REMARK   96  A    between atoms: _241  and  _243
REMARK   97  A    between atoms: _243  and  _244
REMARK   98  A    between atoms: _247  and  _249
REMARK   99  A    between atoms: _249  and  _250
REMARK  100  A    between atoms: _249  and  _252
REMARK  101  A    between atoms: _252  and  _253
REMARK  102  A    between atoms: _256  and  _258
REMARK  103  A    between atoms: _258  and  _259
REMARK  104  A    between atoms: _258  and  _261
REMARK  105  A    between atoms: _261  and  _262
REMARK  106  A    between atoms: _262  and  _263
REMARK  107  A    between atoms: _266  and  _268
REMARK  108  A    between atoms: _268  and  _269
REMARK  109  A    between atoms: _268  and  _271
REMARK  110  A    between atoms: _274  and  _276
REMARK  111  A    between atoms: _276  and  _277
REMARK  112  A    between atoms: _276  and  _279
REMARK  113  A    between atoms: _279  and  _280
REMARK  114  A    between atoms: _283  and  _285
REMARK  115  A    between atoms: _285  and  _286
REMARK  116  A    between atoms: _285  and  _288
REMARK  117  A    between atoms: _288  and  _289
REMARK  118  A    between atoms: _289  and  _290
REMARK  119  A    between atoms: _292  and  _294
REMARK  120  A    between atoms: _294  and  _295
REMARK  121  A    between atoms: _294  and  _297
REMARK  122  A    between atoms: _297  and  _298
REMARK  123  A    between atoms: _301  and  _303
REMARK  124  A    between atoms: _303  and  _304
REMARK  125  A    between atoms: _303  and  _306
REMARK  126  A    between atoms: _306  and  _307
REMARK  127  A    between atoms: _307  and  _308
REMARK  128  A    between atoms: _308  and  _309
REMARK  129  A    between atoms: _318  and  _320
REMARK  130  A    between atoms: _320  and  _321
REMARK  131  A    between atoms: _320  and  _323
REMARK  132  A    between atoms: _323  and  _324
REMARK  133  A    between atoms: _326  and  _328
REMARK  134  A    between atoms: _328  and  _329
REMARK  135  A    between atoms: _328  and  _331
REMARK  136  A    between atoms: _331  and  _332
REMARK  137  A    between atoms: _337  and  _339
REMARK  138  A    between atoms: _339  and  _340
REMARK  139  A    between atoms: _339  and  _342
REMARK  140  A    between atoms: _342  and  _343
REMARK  141  A    between atoms: _343  and  _344
REMARK  142  A    between atoms: _347  and  _349
REMARK  143  A    between atoms: _349  and  _350
REMARK  144  A    between atoms: _349  and  _352
REMARK  145  A    between atoms: _352  and  _353
REMARK  146  A    between atoms: _355  and  _357
REMARK  147  A    between atoms: _357  and  _358
REMARK  148  A    between atoms: _357  and  _360
REMARK  149  A    between atoms: _360  and  _361
REMARK  150  A    between atoms: _367  and  _369
REMARK  151  A    between atoms: _369  and  _370
REMARK  152  A    between atoms: _369  and  _372
REMARK  153  A    between atoms: _372  and  _373
REMARK  154  A    between atoms: _375  and  _377
REMARK  155  A    between atoms: _377  and  _378
REMARK  156  A    between atoms: _377  and  _380
REMARK  157  A    between atoms: _380  and  _381
REMARK  158  A    between atoms: _391  and  _393
REMARK  159  A    between atoms: _393  and  _394
REMARK  160  A    between atoms: _393  and  _396
REMARK  161  A    between atoms: _396  and  _397
REMARK  162  A    between atoms: _400  and  _402
REMARK  163  A    between atoms: _402  and  _403
REMARK  164  A    between atoms: _402  and  _405
REMARK  165  A    between atoms: _407  and  _409
REMARK  166  A    between atoms: _409  and  _410
REMARK  167  A    between atoms: _409  and  _412
REMARK  168  A    between atoms: _412  and  _413
REMARK  169  A    between atoms: _418  and  _419
REMARK  170  A    between atoms: _421  and  _423
REMARK  171  A    between atoms: _423  and  _424
REMARK  172  A    between atoms: _423  and  _426
REMARK  173  A    between atoms: _426  and  _427
REMARK  174  A    between atoms: _427  and  _428
REMARK  175  A    between atoms: _428  and  _429
REMARK  176  A    between atoms: _429  and  _430
REMARK  177  A    between atoms: _434  and  _436
REMARK  178  A    between atoms: _436  and  _437
REMARK  179  A    between atoms: _436  and  _439
REMARK  180  A    between atoms: _439  and  _440
REMARK  181  A    between atoms: _445  and  _446
REMARK  182  A    between atoms: _448  and  _450
REMARK  183  A    between atoms: _450  and  _451
REMARK  184  A    between atoms: _450  and  _453
REMARK  185  A    between atoms: _453  and  _454
REMARK  186  A    between atoms: _454  and  _455
REMARK  187  A    between atoms: _455  and  _456
REMARK  188  A    between atoms: _465  and  _467
REMARK  189  A    between atoms: _467  and  _468
REMARK  190  A    between atoms: _467  and  _470
REMARK  191  A    between atoms: _473  and  _475
REMARK  192  A    between atoms: _475  and  _476
REMARK  193  A    between atoms: _475  and  _478
REMARK  194  A    between atoms: _478  and  _479
REMARK  195  A    between atoms: _482  and  _484
REMARK  196  A    between atoms: _484  and  _485
REMARK  197  A    between atoms: _484  and  _487
REMARK  198  A    between atoms: _490  and  _492
REMARK  199  A    between atoms: _492  and  _493
REMARK  200  A    between atoms: _492  and  _495
REMARK  201  A    between atoms: _495  and  _496
REMARK  202  A    between atoms: _499  and  _501
REMARK  203  A    between atoms: _501  and  _502
REMARK  204  A    between atoms: _505  and  _507
REMARK  205  A    between atoms: _507  and  _508
REMARK  206  A    between atoms: _510  and  _512
REMARK  207  A    between atoms: _512  and  _513
REMARK  208  A    between atoms: _512  and  _515
REMARK  209  A    between atoms: _515  and  _516
REMARK  210  A    between atoms: _521  and  _523
REMARK  211  A    between atoms: _523  and  _524
REMARK  212  A    between atoms: _523  and  _526
REMARK  213  A    between atoms: _526  and  _527
REMARK  214  A    between atoms: _530  and  _532
REMARK  215  A    between atoms: _532  and  _533
REMARK  216  A    between atoms: _532  and  _535
REMARK  217  A    between atoms: _535  and  _536
REMARK  218  A    between atoms: _539  and  _541
REMARK  219  A    between atoms: _541  and  _542
REMARK  220  A    between atoms: _541  and  _544
REMARK  221  A    between atoms: _544  and  _545
REMARK  222  A    between atoms: _548  and  _550
REMARK  223  A    between atoms: _550  and  _551
REMARK  224  A    between atoms: _550  and  _553
REMARK  225  A    between atoms: _553  and  _554
REMARK  226  A    between atoms: _554  and  _555
REMARK  227  A    between atoms: _560  and  _562
REMARK  228  A    between atoms: _562  and  _563
REMARK  229  A    between atoms: _562  and  _565
REMARK  230  A    between atoms: _565  and  _566
REMARK  231  A    between atoms: _569  and  _571
REMARK  232  A    between atoms: _571  and  _572
REMARK  233  A    between atoms: _571  and  _574
REMARK  234  A    between atoms: _574  and  _575
REMARK  235  A    between atoms: _580  and  _582
REMARK  236  A    between atoms: _582  and  _583
REMARK  237  A    between atoms: _582  and  _585
REMARK  238  A    between atoms: _585  and  _586
REMARK  239  A    between atoms: _588  and  _590
REMARK  240  A    between atoms: _590  and  _591
REMARK  241  A    between atoms: _590  and  _593
REMARK  242  A    between atoms: _593  and  _594
REMARK  243  A    between atoms: _594  and  _595
REMARK  244  A    between atoms: _600  and  _602
REMARK  245  A    between atoms: _602  and  _603
REMARK  246  A    between atoms: _602  and  _605
REMARK  247  A    between atoms: _605  and  _606
REMARK  248  A    between atoms: _611  and  _612
REMARK  249  A    between atoms: _614  and  _616
REMARK  250  A    between atoms: _616  and  _617
REMARK  251  A    between atoms: _616  and  _619
REMARK  252  A    between atoms: _619  and  _620
REMARK  253  A    between atoms: _620  and  _621
REMARK  254  A    between atoms: _621  and  _622
REMARK  255  A    between atoms: _631  and  _633
REMARK  256  A    between atoms: _633  and  _634
REMARK  257  A    between atoms: _633  and  _636
REMARK  258  A    between atoms: _636  and  _637
REMARK  259  A    between atoms: _640  and  _642
REMARK  260  A    between atoms: _642  and  _643
REMARK  261  A    between atoms: _642  and  _645
REMARK  262  A    between atoms: _647  and  _649
REMARK  263  A    between atoms: _649  and  _650
REMARK  264  A    between atoms: _649  and  _652
REMARK  265  A    between atoms: _652  and  _653
REMARK  266  A    between atoms: _653  and  _654
REMARK  267  A    between atoms: _654  and  _655
REMARK  268  A    between atoms: _655  and  _656
REMARK  269  A    between atoms: _660  and  _662
REMARK  270  A    between atoms: _662  and  _663
REMARK  271  A    between atoms: _662  and  _665
REMARK  272  A    between atoms: _665  and  _666
REMARK  273  A    between atoms: _669  and  _671
REMARK  274  A    between atoms: _671  and  _672
REMARK  275  A    between atoms: _671  and  _674
REMARK  276  A    between atoms: _674  and  _675
REMARK  277  A    between atoms: _678  and  _680
REMARK  278  A    between atoms: _680  and  _681
REMARK  279  A    between atoms: _680  and  _683
REMARK  280  A    between atoms: _686  and  _688
REMARK  281  A    between atoms: _688  and  _689
REMARK  282  A    between atoms: _688  and  _691
REMARK  283  A    between atoms: _691  and  _692
REMARK  284  A    between atoms: _695  and  _697
REMARK  285  A    between atoms: _697  and  _698
REMARK  286  A    between atoms: _697  and  _700
REMARK  287  A    between atoms: _700  and  _701
REMARK                            x       y       z     vdW  Elec       q    Type
REMARK                         _______ _______ _______ _____ _____    ______ ____
ROOT
ATOM      1  CA  ASP A   7       4.878  16.988  29.892  0.00  0.00    +0.160 C 
ENDROOT
BRANCH   1   2
ATOM      2  C   ASP A   7       6.140  16.665  30.691  0.00  0.00    +0.241 C 
ATOM      3  O   ASP A   7       6.123  15.735  31.504  0.00  0.00    -0.273 OA
ATOM      4  N   LEU A   8       7.216  17.439  30.486  0.00  0.00    -0.297 N 
ATOM      5  H   LEU A   8       7.163  18.210  29.790  0.00  0.00    +0.150 HD
BRANCH   4   6
ATOM      6  CA  LEU A   8       8.473  17.221  31.226  0.00  0.00    +0.149 C 
BRANCH   6   7
ATOM      7  C   LEU A   8       8.239  17.399  32.735  0.00  0.00    +0.241 C 
ATOM      8  O   LEU A   8       8.714  16.612  33.544  0.00  0.00    -0.273 OA
ATOM      9  N   VAL A   9       7.538  18.459  33.117  0.00  0.00    -0.297 N 
ATOM     10  H   VAL A   9       7.180  19.118  32.397  0.00  0.00    +0.150 HD
BRANCH   9  11
ATOM     11  CA  VAL A   9       7.259  18.719  34.522  0.00  0.00    +0.149 C 
BRANCH  11  12
ATOM     12  C   VAL A   9       6.339  17.641  35.106  0.00  0.00    +0.241 C 
ATOM     13  O   VAL A   9       6.575  17.175  36.211  0.00  0.00    -0.273 OA
ATOM     14  N   SER A  10       5.307  17.252  34.352  0.00  0.00    -0.295 N 
ATOM     15  H   SER A  10       5.161  17.694  33.422  0.00  0.00    +0.150 HD
BRANCH  14  16
ATOM     16  CA  SER A  10       4.376  16.216  34.808  0.00  0.00    +0.178 C 
BRANCH  16  17
ATOM     17  C   SER A  10       5.137  14.879  35.025  0.00  0.00    +0.243 C 
ATOM     18  O   SER A  10       4.951  14.196  36.063  0.00  0.00    -0.273 OA
ATOM     19  N   TYR A  11       5.966  14.501  34.050  0.00  0.00    -0.297 N 
ATOM     20  H   TYR A  11       6.020  15.072  33.182  0.00  0.00    +0.150 HD
BRANCH  19  21
ATOM     21  CA  TYR A  11       6.805  13.301  34.169  0.00  0.00    +0.153 C 
BRANCH  21  22
ATOM     22  C   TYR A  11       7.682  13.392  35.418  0.00  0.00    +0.241 C 
ATOM     23  O   TYR A  11       7.827  12.431  36.187  0.00  0.00    -0.273 OA
ATOM     24  N   SER A  12       8.263  14.561  35.604  0.00  0.00    -0.295 N 
ATOM     25  H   SER A  12       8.092  15.328  34.923  0.00  0.00    +0.150 HD
BRANCH  24  26
ATOM     26  CA  SER A  12       9.133  14.801  36.734  0.00  0.00    +0.178 C 
BRANCH  26  27
ATOM     27  C   SER A  12       8.406  14.713  38.065  0.00  0.00    +0.243 C 
ATOM     28  O   SER A  12       8.980  14.200  39.043  0.00  0.00    -0.273 OA
ATOM     29  N   ILE A  13       7.172  15.208  38.128  0.00  0.00    -0.298 N 
ATOM     30  H   ILE A  13       6.759  15.670  37.293  0.00  0.00    +0.150 HD
BRANCH  29  31
ATOM     31  CA  ILE A  13       6.391  15.108  39.363  0.00  0.00    +0.137 C 
BRANCH  31  32
ATOM     32  CB  ILE A  13       5.028  15.843  39.253  0.00  0.00    +0.026 C 
ATOM     33  CG2 ILE A  13       4.167  15.571  40.506  0.00  0.00    +0.002 C 
BRANCH  32  34
ATOM     34  CG1 ILE A  13       5.273  17.341  39.069  0.00  0.00    +0.002 C 
ATOM     35  CD1 ILE A  13       6.254  17.919  40.033  0.00  0.00    +0.000 C 
ENDBRANCH  32  34
ENDBRANCH  31  32
BRANCH  31  36
ATOM     36  C   ILE A  13       6.169  13.630  39.671  0.00  0.00    +0.227 C 
ATOM     37  O   ILE A  13       6.274  13.218  40.836  0.00  0.00    -0.286 OA
ENDBRANCH  31  36
ENDBRANCH  29  31
ENDBRANCH  26  27
BRANCH  26  38
ATOM     38  CB  SER A  12       9.846  16.149  36.582  0.00  0.00    +0.166 C 
BRANCH  38  39
ATOM     39  OG  SER A  12      10.691  16.148  35.432  0.00  0.00    -0.380 OA
ATOM     40  H   SER A  12      10.145  15.982  34.623  0.00  0.00    +0.211 HD
ENDBRANCH  38  39
ENDBRANCH  26  38
ENDBRANCH  24  26
ENDBRANCH  21  22
BRANCH  21  41
ATOM     41  CB  TYR A  11       7.685  13.226  32.931  0.00  0.00    +0.055 C 
BRANCH  41  42
ATOM     42  CG  TYR A  11       8.826  12.229  32.959  0.00  0.00    -0.020 A 
ATOM     43  CD2 TYR A  11      10.091  12.597  33.426  0.00  0.00    -0.001 A 
ATOM     44  CE2 TYR A  11      11.168  11.743  33.331  0.00  0.00    +0.036 A 
ATOM     45  CZ  TYR A  11      10.989  10.490  32.778  0.00  0.00    +0.134 A 
ATOM     46  CE1 TYR A  11       9.741  10.096  32.325  0.00  0.00    +0.036 A 
ATOM     47  CD1 TYR A  11       8.669  10.970  32.418  0.00  0.00    -0.001 A 
BRANCH  45  48
ATOM     48  OH  TYR A  11      12.077   9.650  32.632  0.00  0.00    -0.506 OA
ATOM     49  HH  TYR A  11      11.782   8.798  32.224  0.00  0.00    +0.292 HD
ENDBRANCH  45  48
ENDBRANCH  41  42
ENDBRANCH  21  41
ENDBRANCH  19  21
ENDBRANCH  16  17
BRANCH  16  50
ATOM     50  CB  SER A  10       3.246  16.069  33.788  0.00  0.00    +0.166 C 
BRANCH  50  51
ATOM     51  OG  SER A  10       2.183  15.298  34.332  0.00  0.00    -0.380 OA
ATOM     52  H   SER A  10       2.519  14.398  34.573  0.00  0.00    +0.211 HD
ENDBRANCH  50  51
ENDBRANCH  16  50
ENDBRANCH  14  16
ENDBRANCH  11  12
BRANCH  11  53
ATOM     53  CB  VAL A   9       6.649  20.130  34.715  0.00  0.00    +0.027 C 
ATOM     54  CG2 VAL A   9       6.050  20.266  36.107  0.00  0.00    +0.002 C 
ATOM     55  CG1 VAL A   9       7.726  21.204  34.444  0.00  0.00    +0.002 C 
ENDBRANCH  11  53
ENDBRANCH   9  11
ENDBRANCH   6   7
BRANCH   6  56
ATOM     56  CB  LEU A   8       9.565  18.192  30.733  0.00  0.00    +0.029 C 
BRANCH  56  57
ATOM     57  CG  LEU A   8      10.817  18.320  31.616  0.00  0.00    +0.002 C 
ATOM     58  CD2 LEU A   8      11.551  17.008  31.711  0.00  0.00    +0.000 C 
ATOM     59  CD1 LEU A   8      11.726  19.429  31.080  0.00  0.00    +0.000 C 
ENDBRANCH  56  57
ENDBRANCH   6  56
ENDBRANCH   4   6
ENDBRANCH   1   2
BRANCH   1  62
ATOM     60  C   ALA A   6       4.419  19.091  30.991  0.00  0.00    +0.241 C 
ATOM     61  O   ALA A   6       4.302  18.531  32.086  0.00  0.00    -0.273 OA
ATOM     62  N   ASP A   7       4.668  18.428  29.853  0.00  0.00    -0.297 N 
ATOM     63  H   ASP A   7       4.711  18.939  28.948  0.00  0.00    +0.150 HD
BRANCH  60  64
ATOM     64  CA  ALA A   6       4.269  20.615  30.899  0.00  0.00    +0.149 C 
ATOM     65  CB  ALA A   6       2.846  21.000  30.448  0.00  0.00    +0.031 C 
BRANCH  64  68
ATOM     66  C   LEU A   5       6.558  21.068  30.253  0.00  0.00    +0.241 C 
ATOM     67  O   LEU A   5       6.970  20.635  31.340  0.00  0.00    -0.273 OA
ATOM     68  N   ALA A   6       5.259  21.116  29.956  0.00  0.00    -0.297 N 
ATOM     69  H   ALA A   6       4.951  21.514  29.046  0.00  0.00    +0.150 HD
BRANCH  66  70
ATOM     70  CA  LEU A   5       7.542  21.551  29.200  0.00  0.00    +0.149 C 
BRANCH  70  73
ATOM     71  C   HIS A   4       6.991  20.053  27.390  0.00  0.00    +0.241 C 
ATOM     72  O   HIS A   4       7.271  19.078  28.098  0.00  0.00    -0.273 OA
ATOM     73  N   LEU A   5       7.072  21.305  27.835  0.00  0.00    -0.297 N 
ATOM     74  H   LEU A   5       6.804  22.100  27.220  0.00  0.00    +0.150 HD
BRANCH  71  75
ATOM     75  CA  HIS A   4       6.537  19.832  25.947  0.00  0.00    +0.155 C 
BRANCH  75  78
ATOM     76  C   PRO A   3       4.186  20.314  26.245  0.00  0.00    +0.241 C 
ATOM     77  O   PRO A   3       4.079  19.446  27.108  0.00  0.00    -0.273 OA
ATOM     78  N   HIS A   4       5.334  20.578  25.618  0.00  0.00    -0.297 N 
ATOM     79  H   HIS A   4       5.368  21.321  24.891  0.00  0.00    +0.150 HD
BRANCH  76  83
ATOM     80  C   LEU A   2       3.760  23.124  26.896  0.00  0.00    +0.244 C 
ATOM     81  O   LEU A   2       4.010  22.447  27.890  0.00  0.00    -0.273 OA
ATOM     82  N   PRO A   3       3.228  22.584  25.789  0.00  0.00    -0.272 N 
ATOM     83  CA  PRO A   3       2.950  21.142  25.854  0.00  0.00    +0.152 C 
ATOM     84  CB  PRO A   3       2.446  20.820  24.440  0.00  0.00    +0.031 C 
ATOM     85  CG  PRO A   3       1.794  22.116  24.017  0.00  0.00    +0.024 C 
ATOM     86  CD  PRO A   3       2.750  23.177  24.524  0.00  0.00    +0.094 C 
BRANCH  80  87
ATOM     87  CA  LEU A   2       4.089  24.622  26.900  0.00  0.00    +0.149 C 
BRANCH  87  90
ATOM     88  C   MET A   1       6.070  24.654  25.523  0.00  0.00    +0.238 C 
ATOM     89  O   MET A   1       6.600  23.813  26.267  0.00  0.00    -0.274 OA
ATOM     90  N   LEU A   2       4.831  25.102  25.742  0.00  0.00    -0.297 N 
ATOM     91  H   LEU A   2       4.399  25.788  25.091  0.00  0.00    +0.150 HD
BRANCH  88  92
ATOM     92  CA  MET A   1       6.845  25.212  24.335  0.00  0.00    +0.146 C 
BRANCH  92  93
ATOM     93  N   MET A   1       6.084  26.188  23.556  0.00  0.00    -0.238 NA
ATOM     94  H   MET A   1       6.059  27.186  23.847  0.00  0.00    +0.142 HD
ENDBRANCH  92  93
BRANCH  92  95
ATOM     95  CB  MET A   1       8.146  25.852  24.845  0.00  0.00    +0.038 C 
BRANCH  95  96
ATOM     96  CG  MET A   1       9.279  25.964  23.829  0.00  0.00    +0.060 C 
BRANCH  96  97
ATOM     97  SD  MET A   1       9.837  24.319  23.263  0.00  0.00    -0.139 S 
ATOM     98  CE  MET A   1      10.650  23.678  24.717  0.00  0.00    +0.069 C 
ENDBRANCH  96  97
ENDBRANCH  95  96
ENDBRANCH  92  95
ENDBRANCH  88  92
ENDBRANCH  87  90
BRANCH  87  99
ATOM     99  CB  LEU A   2       2.831  25.468  27.125  0.00  0.00    +0.029 C 
BRANCH  99 100
ATOM    100  CG  LEU A   2       2.063  25.168  28.429  0.00  0.00    +0.002 C 
ATOM    101  CD2 LEU A   2       2.970  25.316  29.651  0.00  0.00    +0.000 C 
ATOM    102  CD1 LEU A   2       0.873  26.111  28.560  0.00  0.00    +0.000 C 
ENDBRANCH  99 100
ENDBRANCH  87  99
ENDBRANCH  80  87
ENDBRANCH  76  83
ENDBRANCH  75  78
BRANCH  75 103
ATOM    103  CB  HIS A   4       7.678  20.194  25.003  0.00  0.00    +0.076 C 
BRANCH 103 104
ATOM    104  CG  HIS A   4       8.909  19.360  25.205  0.00  0.00    +0.082 A 
ATOM    105  CD2 HIS A   4      10.075  19.626  25.848  0.00  0.00    +0.115 A 
ATOM    106  NE2 HIS A   4      10.849  18.495  25.766  0.00  0.00    -0.221 NA
ATOM    107  CE1 HIS A   4      10.186  17.566  25.098  0.00  0.00    +0.199 A 
ATOM    108  ND1 HIS A   4       9.011  18.064  24.743  0.00  0.00    -0.227 NA
ENDBRANCH 103 104
ENDBRANCH  75 103
ENDBRANCH  71  75
ENDBRANCH  70  73
BRANCH  70 109
ATOM    109  CB  LEU A   5       7.915  23.034  29.415  0.00  0.00    +0.029 C 
BRANCH 109 110
ATOM    110  CG  LEU A   5       9.095  23.471  28.528  0.00  0.00    +0.002 C 
ATOM    111  CD2 LEU A   5      10.344  22.602  28.813  0.00  0.00    +0.000 C 
ATOM    112  CD1 LEU A   5       9.378  24.933  28.766  0.00  0.00    +0.000 C 
ENDBRANCH 109 110
ENDBRANCH  70 109
ENDBRANCH  66  70
ENDBRANCH  64  68
ENDBRANCH  60  64
ENDBRANCH   1  62
BRANCH   1 113
ATOM    113  CB  ASP A   7       4.976  16.391  28.486  0.00  0.00    +0.143 C 
BRANCH 113 114
ATOM    114  CG  ASP A   7       3.615  16.250  27.819  0.00  0.00    +0.367 C 
ATOM    115  OD2 ASP A   7       2.579  16.363  28.523  0.00  0.00    -0.246 OA
ATOM    116  OD1 ASP A   7       3.613  16.015  26.596  0.00  0.00    -0.246 OA
ENDBRANCH 113 114
ENDBRANCH   1 113
TORSDOF 48
REMARK  Name = ../refined-set-2016/1ie9/1ie9_pocket.pdb
REMARK  287 active torsions:
REMARK  status: ('A' for Active; 'I' for Inactive)
REMARK    1  A    between atoms: _1  and  _3
REMARK    2  A    between atoms: _3  and  _4
REMARK    3  A    between atoms: _3  and  _6
REMARK    4  A    between atoms: _6  and  _7
REMARK    5  A    between atoms: _10  and  _12
REMARK    6  A    between atoms: _12  and  _13
REMARK    7  A    between atoms: _12  and  _15
REMARK    8  A    between atoms: _15  and  _16
REMARK    9  A    between atoms: _21  and  _22
REMARK   10  A    between atoms: _24  and  _26
REMARK   11  A    between atoms: _26  and  _27
REMARK   12  A    between atoms: _26  and  _29
REMARK   13  A    between atoms: _29  and  _30
REMARK   14  A    between atoms: _34  and  _35
REMARK   15  A    between atoms: _40  and  _42
REMARK   16  A    between atoms: _42  and  _43
REMARK   17  A    between atoms: _42  and  _45
REMARK   18  A    between atoms: _45  and  _46
REMARK   19  A    between atoms: _51  and  _52
REMARK   20  A    between atoms: _54  and  _56
REMARK   21  A    between atoms: _56  and  _57
REMARK   22  A    between atoms: _56  and  _59
REMARK   23  A    between atoms: _59  and  _60
REMARK   24  A    between atoms: _66  and  _68
REMARK   25  A    between atoms: _68  and  _69
REMARK   26  A    between atoms: _68  and  _71
REMARK   27  A    between atoms: _71  and  _72
REMARK   28  A    between atoms: _78  and  _80
REMARK   29  A    between atoms: _80  and  _81
REMARK   30  A    between atoms: _80  and  _83
REMARK   31  A    between atoms: _83  and  _84
REMARK   32  A    between atoms: _84  and  _85
REMARK   33  A    between atoms: _85  and  _86
REMARK   34  A    between atoms: _95  and  _97
REMARK   35  A    between atoms: _97  and  _98
REMARK   36  A    between atoms: _97  and  _100
REMARK   37  A    between atoms: _100  and  _101
REMARK   38  A    between atoms: _104  and  _106
REMARK   39  A    between atoms: _106  and  _107
REMARK   40  A    between atoms: _106  and  _109
REMARK   41  A    between atoms: _109  and  _110
REMARK   42  A    between atoms: _110  and  _111
REMARK   43  A    between atoms: _113  and  _115
REMARK   44  A    between atoms: _115  and  _116
REMARK   45  A    between atoms: _115  and  _118
REMARK   46  A    between atoms: _118  and  _119
REMARK   47  A    between atoms: _123  and  _124
REMARK   48  A    between atoms: _129  and  _131
REMARK   49  A    between atoms: _131  and  _132
REMARK   50  A    between atoms: _131  and  _134
REMARK   51  A    between atoms: _134  and  _135
REMARK   52  A    between atoms: _140  and  _142
REMARK   53  A    between atoms: _142  and  _143
REMARK   54  A    between atoms: _142  and  _145
REMARK   55  A    between atoms: _145  and  _146
REMARK   56  A    between atoms: _149  and  _151
REMARK   57  A    between atoms: _151  and  _152
REMARK   58  A    between atoms: _155  and  _157
REMARK   59  A    between atoms: _157  and  _158
REMARK   60  A    between atoms: _157  and  _160
REMARK   61  A    between atoms: _160  and  _161
REMARK   62  A    between atoms: _164  and  _166
REMARK   63  A    between atoms: _166  and  _167
REMARK   64  A    between atoms: _166  and  _169
REMARK   65  A    between atoms: _169  and  _170
REMARK   66  A    between atoms: _173  and  _175
REMARK   67  A    between atoms: _175  and  _176
REMARK   68  A    between atoms: _175  and  _178
REMARK   69  A    between atoms: _181  and  _183
REMARK   70  A    between atoms: _183  and  _184
REMARK   71  A    between atoms: _183  and  _186
REMARK   72  A    between atoms: _186  and  _187
REMARK   73  A    between atoms: _189  and  _191
REMARK   74  A    between atoms: _191  and  _192
REMARK   75  A    between atoms: _191  and  _194
REMARK   76  A    between atoms: _194  and  _195
REMARK   77  A    between atoms: _200  and  _201
REMARK   78  A    between atoms: _203  and  _205
REMARK   79  A    between atoms: _205  and  _206
REMARK   80  A    between atoms: _205  and  _208
REMARK   81  A    between atoms: _208  and  _209
REMARK   82  A    between atoms: _211  and  _213
REMARK   83  A    between atoms: _213  and  _214
REMARK   84  A    between atoms: _213  and  _216
REMARK   85  A    between atoms: _216  and  _217
REMARK   86  A    between atoms: _220  and  _222
REMARK   87  A    between atoms: _222  and  _223
REMARK   88  A    between atoms: _222  and  _225
REMARK   89  A    between atoms: _225  and  _226
REMARK   90  A    between atoms: _226  and  _227
REMARK   91  A    between atoms: _227  and  _228
REMARK   92  A    between atoms: _228  and  _229
REMARK   93  A    between atoms: _233  and  _235
REMARK   94  A    between atoms: _235  and  _236
REMARK   95  A    between atoms: _235  and  _238
REMARK   96  A    between atoms: _241  and  _243
REMARK   97  A    between atoms: _243  and  _244
REMARK   98  A    between atoms: _247  and  _249
REMARK   99  A    between atoms: _249  and  _250
REMARK  100  A    between atoms: _249  and  _252
REMARK  101  A    between atoms: _252  and  _253
REMARK  102  A    between atoms: _256  and  _258
REMARK  103  A    between atoms: _258  and  _259
REMARK  104  A    between atoms: _258  and  _261
REMARK  105  A    between atoms: _261  and  _262
REMARK  106  A    between atoms: _262  and  _263
REMARK  107  A    between atoms: _266  and  _268
REMARK  108  A    between atoms: _268  and  _269
REMARK  109  A    between atoms: _268  and  _271
REMARK  110  A    between atoms: _274  and  _276
REMARK  111  A    between atoms: _276  and  _277
REMARK  112  A    between atoms: _276  and  _279
REMARK  113  A    between atoms: _279  and  _280
REMARK  114  A    between atoms: _283  and  _285
REMARK  115  A    between atoms: _285  and  _286
REMARK  116  A    between atoms: _285  and  _288
REMARK  117  A    between atoms: _288  and  _289
REMARK  118  A    between atoms: _289  and  _290
REMARK  119  A    between atoms: _292  and  _294
REMARK  120  A    between atoms: _294  and  _295
REMARK  121  A    between atoms: _294  and  _297
REMARK  122  A    between atoms: _297  and  _298
REMARK  123  A    between atoms: _301  and  _303
REMARK  124  A    between atoms: _303  and  _304
REMARK  125  A    between atoms: _303  and  _306
REMARK  126  A    between atoms: _306  and  _307
REMARK  127  A    between atoms: _307  and  _308
REMARK  128  A    between atoms: _308  and  _309
REMARK  129  A    between atoms: _318  and  _320
REMARK  130  A    between atoms: _320  and  _321
REMARK  131  A    between atoms: _320  and  _323
REMARK  132  A    between atoms: _323  and  _324
REMARK  133  A    between atoms: _326  and  _328
REMARK  134  A    between atoms: _328  and  _329
REMARK  135  A    between atoms: _328  and  _331
REMARK  136  A    between atoms: _331  and  _332
REMARK  137  A    between atoms: _337  and  _339
REMARK  138  A    between atoms: _339  and  _340
REMARK  139  A    between atoms: _339  and  _342
REMARK  140  A    between atoms: _342  and  _343
REMARK  141  A    between atoms: _343  and  _344
REMARK  142  A    between atoms: _347  and  _349
REMARK  143  A    between atoms: _349  and  _350
REMARK  144  A    between atoms: _349  and  _352
REMARK  145  A    between atoms: _352  and  _353
REMARK  146  A    between atoms: _355  and  _357
REMARK  147  A    between atoms: _357  and  _358
REMARK  148  A    between atoms: _357  and  _360
REMARK  149  A    between atoms: _360  and  _361
REMARK  150  A    between atoms: _367  and  _369
REMARK  151  A    between atoms: _369  and  _370
REMARK  152  A    between atoms: _369  and  _372
REMARK  153  A    between atoms: _372  and  _373
REMARK  154  A    between atoms: _375  and  _377
REMARK  155  A    between atoms: _377  and  _378
REMARK  156  A    between atoms: _377  and  _380
REMARK  157  A    between atoms: _380  and  _381
REMARK  158  A    between atoms: _391  and  _393
REMARK  159  A    between atoms: _393  and  _394
REMARK  160  A    between atoms: _393  and  _396
REMARK  161  A    between atoms: _396  and  _397
REMARK  162  A    between atoms: _400  and  _402
REMARK  163  A    between atoms: _402  and  _403
REMARK  164  A    between atoms: _402  and  _405
REMARK  165  A    between atoms: _407  and  _409
REMARK  166  A    between atoms: _409  and  _410
REMARK  167  A    between atoms: _409  and  _412
REMARK  168  A    between atoms: _412  and  _413
REMARK  169  A    between atoms: _418  and  _419
REMARK  170  A    between atoms: _421  and  _423
REMARK  171  A    between atoms: _423  and  _424
REMARK  172  A    between atoms: _423  and  _426
REMARK  173  A    between atoms: _426  and  _427
REMARK  174  A    between atoms: _427  and  _428
REMARK  175  A    between atoms: _428  and  _429
REMARK  176  A    between atoms: _429  and  _430
REMARK  177  A    between atoms: _434  and  _436
REMARK  178  A    between atoms: _436  and  _437
REMARK  179  A    between atoms: _436  and  _439
REMARK  180  A    between atoms: _439  and  _440
REMARK  181  A    between atoms: _445  and  _446
REMARK  182  A    between atoms: _448  and  _450
REMARK  183  A    between atoms: _450  and  _451
REMARK  184  A    between atoms: _450  and  _453
REMARK  185  A    between atoms: _453  and  _454
REMARK  186  A    between atoms: _454  and  _455
REMARK  187  A    between atoms: _455  and  _456
REMARK  188  A    between atoms: _465  and  _467
REMARK  189  A    between atoms: _467  and  _468
REMARK  190  A    between atoms: _467  and  _470
REMARK  191  A    between atoms: _473  and  _475
REMARK  192  A    between atoms: _475  and  _476
REMARK  193  A    between atoms: _475  and  _478
REMARK  194  A    between atoms: _478  and  _479
REMARK  195  A    between atoms: _482  and  _484
REMARK  196  A    between atoms: _484  and  _485
REMARK  197  A    between atoms: _484  and  _487
REMARK  198  A    between atoms: _490  and  _492
REMARK  199  A    between atoms: _492  and  _493
REMARK  200  A    between atoms: _492  and  _495
REMARK  201  A    between atoms: _495  and  _496
REMARK  202  A    between atoms: _499  and  _501
REMARK  203  A    between atoms: _501  and  _502
REMARK  204  A    between atoms: _505  and  _507
REMARK  205  A    between atoms: _507  and  _508
REMARK  206  A    between atoms: _510  and  _512
REMARK  207  A    between atoms: _512  and  _513
REMARK  208  A    between atoms: _512  and  _515
REMARK  209  A    between atoms: _515  and  _516
REMARK  210  A    between atoms: _521  and  _523
REMARK  211  A    between atoms: _523  and  _524
REMARK  212  A    between atoms: _523  and  _526
REMARK  213  A    between atoms: _526  and  _527
REMARK  214  A    between atoms: _530  and  _532
REMARK  215  A    between atoms: _532  and  _533
REMARK  216  A    between atoms: _532  and  _535
REMARK  217  A    between atoms: _535  and  _536
REMARK  218  A    between atoms: _539  and  _541
REMARK  219  A    between atoms: _541  and  _542
REMARK  220  A    between atoms: _541  and  _544
REMARK  221  A    between atoms: _544  and  _545
REMARK  222  A    between atoms: _548  and  _550
REMARK  223  A    between atoms: _550  and  _551
REMARK  224  A    between atoms: _550  and  _553
REMARK  225  A    between atoms: _553  and  _554
REMARK  226  A    between atoms: _554  and  _555
REMARK  227  A    between atoms: _560  and  _562
REMARK  228  A    between atoms: _562  and  _563
REMARK  229  A    between atoms: _562  and  _565
REMARK  230  A    between atoms: _565  and  _566
REMARK  231  A    between atoms: _569  and  _571
REMARK  232  A    between atoms: _571  and  _572
REMARK  233  A    between atoms: _571  and  _574
REMARK  234  A    between atoms: _574  and  _575
REMARK  235  A    between atoms: _580  and  _582
REMARK  236  A    between atoms: _582  and  _583
REMARK  237  A    between atoms: _582  and  _585
REMARK  238  A    between atoms: _585  and  _586
REMARK  239  A    between atoms: _588  and  _590
REMARK  240  A    between atoms: _590  and  _591
REMARK  241  A    between atoms: _590  and  _593
REMARK  242  A    between atoms: _593  and  _594
REMARK  243  A    between atoms: _594  and  _595
REMARK  244  A    between atoms: _600  and  _602
REMARK  245  A    between atoms: _602  and  _603
REMARK  246  A    between atoms: _602  and  _605
REMARK  247  A    between atoms: _605  and  _606
REMARK  248  A    between atoms: _611  and  _612
REMARK  249  A    between atoms: _614  and  _616
REMARK  250  A    between atoms: _616  and  _617
REMARK  251  A    between atoms: _616  and  _619
REMARK  252  A    between atoms: _619  and  _620
REMARK  253  A    between atoms: _620  and  _621
REMARK  254  A    between atoms: _621  and  _622
REMARK  255  A    between atoms: _631  and  _633
REMARK  256  A    between atoms: _633  and  _634
REMARK  257  A    between atoms: _633  and  _636
REMARK  258  A    between atoms: _636  and  _637
REMARK  259  A    between atoms: _640  and  _642
REMARK  260  A    between atoms: _642  and  _643
REMARK  261  A    between atoms: _642  and  _645
REMARK  262  A    between atoms: _647  and  _649
REMARK  263  A    between atoms: _649  and  _650
REMARK  264  A    between atoms: _649  and  _652
REMARK  265  A    between atoms: _652  and  _653
REMARK  266  A    between atoms: _653  and  _654
REMARK  267  A    between atoms: _654  and  _655
REMARK  268  A    between atoms: _655  and  _656
REMARK  269  A    between atoms: _660  and  _662
REMARK  270  A    between atoms: _662  and  _663
REMARK  271  A    between atoms: _662  and  _665
REMARK  272  A    between atoms: _665  and  _666
REMARK  273  A    between atoms: _669  and  _671
REMARK  274  A    between atoms: _671  and  _672
REMARK  275  A    between atoms: _671  and  _674
REMARK  276  A    between atoms: _674  and  _675
REMARK  277  A    between atoms: _678  and  _680
REMARK  278  A    between atoms: _680  and  _681
REMARK  279  A    between atoms: _680  and  _683
REMARK  280  A    between atoms: _686  and  _688
REMARK  281  A    between atoms: _688  and  _689
REMARK  282  A    between atoms: _688  and  _691
REMARK  283  A    between atoms: _691  and  _692
REMARK  284  A    between atoms: _695  and  _697
REMARK  285  A    between atoms: _697  and  _698
REMARK  286  A    between atoms: _697  and  _700
REMARK  287  A    between atoms: _700  and  _701
REMARK                            x       y       z     vdW  Elec       q    Type
REMARK                         _______ _______ _______ _____ _____    ______ ____
ROOT
ATOM      1  CA  LYS A   1       9.380  10.635  39.457  0.00  0.00    +0.145 C 
ENDROOT
BRANCH   1   2
ATOM      2  C   LYS A   1       9.611  11.099  40.896  0.00  0.00    +0.238 C 
ATOM      3  O   LYS A   1      10.053  10.306  41.748  0.00  0.00    -0.274 OA
ATOM      4  N   VAL A   2       9.277  12.355  41.182  0.00  0.00    -0.298 N 
ATOM      5  H   VAL A   2       8.880  12.964  40.439  0.00  0.00    +0.150 HD
BRANCH   4   6
ATOM      6  CA  VAL A   2       9.464  12.889  42.538  0.00  0.00    +0.137 C 
BRANCH   6   7
ATOM      7  CB  VAL A   2       9.203  14.425  42.559  0.00  0.00    +0.026 C 
ATOM      8  CG2 VAL A   2       9.129  14.920  44.022  0.00  0.00    +0.002 C 
ATOM      9  CG1 VAL A   2      10.346  15.173  41.833  0.00  0.00    +0.002 C 
ENDBRANCH   6   7
BRANCH   6  10
ATOM     10  C   VAL A   2       8.547  12.154  43.540  0.00  0.00    +0.227 C 
ATOM     11  O   VAL A   2       8.943  11.893  44.650  0.00  0.00    -0.286 OA
ENDBRANCH   6  10
ENDBRANCH   4   6
ENDBRANCH   1   2
BRANCH   1  12
ATOM     12  N   LYS A   1       8.113  11.175  38.945  0.00  0.00    -0.238 NA
ATOM     13  H   LYS A   1       8.121  11.859  38.162  0.00  0.00    +0.142 HD
ENDBRANCH   1  12
BRANCH   1  14
ATOM     14  CB  LYS A   1      10.565  11.073  38.584  0.00  0.00    +0.026 C 
BRANCH  14  15
ATOM     15  CG  LYS A   1      10.524  10.540  37.133  0.00  0.00    -0.000 C 
BRANCH  15  16
ATOM     16  CD  LYS A   1      10.310   9.026  37.088  0.00  0.00    -0.024 C 
BRANCH  16  17
ATOM     17  CE  LYS A   1      10.328   8.509  35.658  0.00  0.00    -0.086 C 
BRANCH  17  18
ATOM     18  NZ  LYS A   1       9.926   7.089  35.579  0.00  0.00    +0.380 N 
ATOM     19  HZ1 LYS A   1      10.583   6.512  36.142  0.00  0.00    -0.089 HD
ATOM     20  HZ2 LYS A   1       8.961   6.982  35.952  0.00  0.00    -0.089 HD
ATOM     21  HZ3 LYS A   1       9.952   6.777  34.587  0.00  0.00    -0.089 HD
ENDBRANCH  17  18
ENDBRANCH  16  17
ENDBRANCH  15  16
ENDBRANCH  14  15
ENDBRANCH   1  14
TORSDOF 10
REMARK  Name = ../refined-set-2016/1ie9/1ie9_pocket.pdb
REMARK  287 active torsions:
REMARK  status: ('A' for Active; 'I' for Inactive)
REMARK    1  A    between atoms: _1  and  _3
REMARK    2  A    between atoms: _3  and  _4
REMARK    3  A    between atoms: _3  and  _6
REMARK    4  A    between atoms: _6  and  _7
REMARK    5  A    between atoms: _10  and  _12
REMARK    6  A    between atoms: _12  and  _13
REMARK    7  A    between atoms: _12  and  _15
REMARK    8  A    between atoms: _15  and  _16
REMARK    9  A    between atoms: _21  and  _22
REMARK   10  A    between atoms: _24  and  _26
REMARK   11  A    between atoms: _26  and  _27
REMARK   12  A    between atoms: _26  and  _29
REMARK   13  A    between atoms: _29  and  _30
REMARK   14  A    between atoms: _34  and  _35
REMARK   15  A    between atoms: _40  and  _42
REMARK   16  A    between atoms: _42  and  _43
REMARK   17  A    between atoms: _42  and  _45
REMARK   18  A    between atoms: _45  and  _46
REMARK   19  A    between atoms: _51  and  _52
REMARK   20  A    between atoms: _54  and  _56
REMARK   21  A    between atoms: _56  and  _57
REMARK   22  A    between atoms: _56  and  _59
REMARK   23  A    between atoms: _59  and  _60
REMARK   24  A    between atoms: _66  and  _68
REMARK   25  A    between atoms: _68  and  _69
REMARK   26  A    between atoms: _68  and  _71
REMARK   27  A    between atoms: _71  and  _72
REMARK   28  A    between atoms: _78  and  _80
REMARK   29  A    between atoms: _80  and  _81
REMARK   30  A    between atoms: _80  and  _83
REMARK   31  A    between atoms: _83  and  _84
REMARK   32  A    between atoms: _84  and  _85
REMARK   33  A    between atoms: _85  and  _86
REMARK   34  A    between atoms: _95  and  _97
REMARK   35  A    between atoms: _97  and  _98
REMARK   36  A    between atoms: _97  and  _100
REMARK   37  A    between atoms: _100  and  _101
REMARK   38  A    between atoms: _104  and  _106
REMARK   39  A    between atoms: _106  and  _107
REMARK   40  A    between atoms: _106  and  _109
REMARK   41  A    between atoms: _109  and  _110
REMARK   42  A    between atoms: _110  and  _111
REMARK   43  A    between atoms: _113  and  _115
REMARK   44  A    between atoms: _115  and  _116
REMARK   45  A    between atoms: _115  and  _118
REMARK   46  A    between atoms: _118  and  _119
REMARK   47  A    between atoms: _123  and  _124
REMARK   48  A    between atoms: _129  and  _131
REMARK   49  A    between atoms: _131  and  _132
REMARK   50  A    between atoms: _131  and  _134
REMARK   51  A    between atoms: _134  and  _135
REMARK   52  A    between atoms: _140  and  _142
REMARK   53  A    between atoms: _142  and  _143
REMARK   54  A    between atoms: _142  and  _145
REMARK   55  A    between atoms: _145  and  _146
REMARK   56  A    between atoms: _149  and  _151
REMARK   57  A    between atoms: _151  and  _152
REMARK   58  A    between atoms: _155  and  _157
REMARK   59  A    between atoms: _157  and  _158
REMARK   60  A    between atoms: _157  and  _160
REMARK   61  A    between atoms: _160  and  _161
REMARK   62  A    between atoms: _164  and  _166
REMARK   63  A    between atoms: _166  and  _167
REMARK   64  A    between atoms: _166  and  _169
REMARK   65  A    between atoms: _169  and  _170
REMARK   66  A    between atoms: _173  and  _175
REMARK   67  A    between atoms: _175  and  _176
REMARK   68  A    between atoms: _175  and  _178
REMARK   69  A    between atoms: _181  and  _183
REMARK   70  A    between atoms: _183  and  _184
REMARK   71  A    between atoms: _183  and  _186
REMARK   72  A    between atoms: _186  and  _187
REMARK   73  A    between atoms: _189  and  _191
REMARK   74  A    between atoms: _191  and  _192
REMARK   75  A    between atoms: _191  and  _194
REMARK   76  A    between atoms: _194  and  _195
REMARK   77  A    between atoms: _200  and  _201
REMARK   78  A    between atoms: _203  and  _205
REMARK   79  A    between atoms: _205  and  _206
REMARK   80  A    between atoms: _205  and  _208
REMARK   81  A    between atoms: _208  and  _209
REMARK   82  A    between atoms: _211  and  _213
REMARK   83  A    between atoms: _213  and  _214
REMARK   84  A    between atoms: _213  and  _216
REMARK   85  A    between atoms: _216  and  _217
REMARK   86  A    between atoms: _220  and  _222
REMARK   87  A    between atoms: _222  and  _223
REMARK   88  A    between atoms: _222  and  _225
REMARK   89  A    between atoms: _225  and  _226
REMARK   90  A    between atoms: _226  and  _227
REMARK   91  A    between atoms: _227  and  _228
REMARK   92  A    between atoms: _228  and  _229
REMARK   93  A    between atoms: _233  and  _235
REMARK   94  A    between atoms: _235  and  _236
REMARK   95  A    between atoms: _235  and  _238
REMARK   96  A    between atoms: _241  and  _243
REMARK   97  A    between atoms: _243  and  _244
REMARK   98  A    between atoms: _247  and  _249
REMARK   99  A    between atoms: _249  and  _250
REMARK  100  A    between atoms: _249  and  _252
REMARK  101  A    between atoms: _252  and  _253
REMARK  102  A    between atoms: _256  and  _258
REMARK  103  A    between atoms: _258  and  _259
REMARK  104  A    between atoms: _258  and  _261
REMARK  105  A    between atoms: _261  and  _262
REMARK  106  A    between atoms: _262  and  _263
REMARK  107  A    between atoms: _266  and  _268
REMARK  108  A    between atoms: _268  and  _269
REMARK  109  A    between atoms: _268  and  _271
REMARK  110  A    between atoms: _274  and  _276
REMARK  111  A    between atoms: _276  and  _277
REMARK  112  A    between atoms: _276  and  _279
REMARK  113  A    between atoms: _279  and  _280
REMARK  114  A    between atoms: _283  and  _285
REMARK  115  A    between atoms: _285  and  _286
REMARK  116  A    between atoms: _285  and  _288
REMARK  117  A    between atoms: _288  and  _289
REMARK  118  A    between atoms: _289  and  _290
REMARK  119  A    between atoms: _292  and  _294
REMARK  120  A    between atoms: _294  and  _295
REMARK  121  A    between atoms: _294  and  _297
REMARK  122  A    between atoms: _297  and  _298
REMARK  123  A    between atoms: _301  and  _303
REMARK  124  A    between atoms: _303  and  _304
REMARK  125  A    between atoms: _303  and  _306
REMARK  126  A    between atoms: _306  and  _307
REMARK  127  A    between atoms: _307  and  _308
REMARK  128  A    between atoms: _308  and  _309
REMARK  129  A    between atoms: _318  and  _320
REMARK  130  A    between atoms: _320  and  _321
REMARK  131  A    between atoms: _320  and  _323
REMARK  132  A    between atoms: _323  and  _324
REMARK  133  A    between atoms: _326  and  _328
REMARK  134  A    between atoms: _328  and  _329
REMARK  135  A    between atoms: _328  and  _331
REMARK  136  A    between atoms: _331  and  _332
REMARK  137  A    between atoms: _337  and  _339
REMARK  138  A    between atoms: _339  and  _340
REMARK  139  A    between atoms: _339  and  _342
REMARK  140  A    between atoms: _342  and  _343
REMARK  141  A    between atoms: _343  and  _344
REMARK  142  A    between atoms: _347  and  _349
REMARK  143  A    between atoms: _349  and  _350
REMARK  144  A    between atoms: _349  and  _352
REMARK  145  A    between atoms: _352  and  _353
REMARK  146  A    between atoms: _355  and  _357
REMARK  147  A    between atoms: _357  and  _358
REMARK  148  A    between atoms: _357  and  _360
REMARK  149  A    between atoms: _360  and  _361
REMARK  150  A    between atoms: _367  and  _369
REMARK  151  A    between atoms: _369  and  _370
REMARK  152  A    between atoms: _369  and  _372
REMARK  153  A    between atoms: _372  and  _373
REMARK  154  A    between atoms: _375  and  _377
REMARK  155  A    between atoms: _377  and  _378
REMARK  156  A    between atoms: _377  and  _380
REMARK  157  A    between atoms: _380  and  _381
REMARK  158  A    between atoms: _391  and  _393
REMARK  159  A    between atoms: _393  and  _394
REMARK  160  A    between atoms: _393  and  _396
REMARK  161  A    between atoms: _396  and  _397
REMARK  162  A    between atoms: _400  and  _402
REMARK  163  A    between atoms: _402  and  _403
REMARK  164  A    between atoms: _402  and  _405
REMARK  165  A    between atoms: _407  and  _409
REMARK  166  A    between atoms: _409  and  _410
REMARK  167  A    between atoms: _409  and  _412
REMARK  168  A    between atoms: _412  and  _413
REMARK  169  A    between atoms: _418  and  _419
REMARK  170  A    between atoms: _421  and  _423
REMARK  171  A    between atoms: _423  and  _424
REMARK  172  A    between atoms: _423  and  _426
REMARK  173  A    between atoms: _426  and  _427
REMARK  174  A    between atoms: _427  and  _428
REMARK  175  A    between atoms: _428  and  _429
REMARK  176  A    between atoms: _429  and  _430
REMARK  177  A    between atoms: _434  and  _436
REMARK  178  A    between atoms: _436  and  _437
REMARK  179  A    between atoms: _436  and  _439
REMARK  180  A    between atoms: _439  and  _440
REMARK  181  A    between atoms: _445  and  _446
REMARK  182  A    between atoms: _448  and  _450
REMARK  183  A    between atoms: _450  and  _451
REMARK  184  A    between atoms: _450  and  _453
REMARK  185  A    between atoms: _453  and  _454
REMARK  186  A    between atoms: _454  and  _455
REMARK  187  A    between atoms: _455  and  _456
REMARK  188  A    between atoms: _465  and  _467
REMARK  189  A    between atoms: _467  and  _468
REMARK  190  A    between atoms: _467  and  _470
REMARK  191  A    between atoms: _473  and  _475
REMARK  192  A    between atoms: _475  and  _476
REMARK  193  A    between atoms: _475  and  _478
REMARK  194  A    between atoms: _478  and  _479
REMARK  195  A    between atoms: _482  and  _484
REMARK  196  A    between atoms: _484  and  _485
REMARK  197  A    between atoms: _484  and  _487
REMARK  198  A    between atoms: _490  and  _492
REMARK  199  A    between atoms: _492  and  _493
REMARK  200  A    between atoms: _492  and  _495
REMARK  201  A    between atoms: _495  and  _496
REMARK  202  A    between atoms: _499  and  _501
REMARK  203  A    between atoms: _501  and  _502
REMARK  204  A    between atoms: _505  and  _507
REMARK  205  A    between atoms: _507  and  _508
REMARK  206  A    between atoms: _510  and  _512
REMARK  207  A    between atoms: _512  and  _513
REMARK  208  A    between atoms: _512  and  _515
REMARK  209  A    between atoms: _515  and  _516
REMARK  210  A    between atoms: _521  and  _523
REMARK  211  A    between atoms: _523  and  _524
REMARK  212  A    between atoms: _523  and  _526
REMARK  213  A    between atoms: _526  and  _527
REMARK  214  A    between atoms: _530  and  _532
REMARK  215  A    between atoms: _532  and  _533
REMARK  216  A    between atoms: _532  and  _535
REMARK  217  A    between atoms: _535  and  _536
REMARK  218  A    between atoms: _539  and  _541
REMARK  219  A    between atoms: _541  and  _542
REMARK  220  A    between atoms: _541  and  _544
REMARK  221  A    between atoms: _544  and  _545
REMARK  222  A    between atoms: _548  and  _550
REMARK  223  A    between atoms: _550  and  _551
REMARK  224  A    between atoms: _550  and  _553
REMARK  225  A    between atoms: _553  and  _554
REMARK  226  A    between atoms: _554  and  _555
REMARK  227  A    between atoms: _560  and  _562
REMARK  228  A    between atoms: _562  and  _563
REMARK  229  A    between atoms: _562  and  _565
REMARK  230  A    between atoms: _565  and  _566
REMARK  231  A    between atoms: _569  and  _571
REMARK  232  A    between atoms: _571  and  _572
REMARK  233  A    between atoms: _571  and  _574
REMARK  234  A    between atoms: _574  and  _575
REMARK  235  A    between atoms: _580  and  _582
REMARK  236  A    between atoms: _582  and  _583
REMARK  237  A    between atoms: _582  and  _585
REMARK  238  A    between atoms: _585  and  _586
REMARK  239  A    between atoms: _588  and  _590
REMARK  240  A    between atoms: _590  and  _591
REMARK  241  A    between atoms: _590  and  _593
REMARK  242  A    between atoms: _593  and  _594
REMARK  243  A    between atoms: _594  and  _595
REMARK  244  A    between atoms: _600  and  _602
REMARK  245  A    between atoms: _602  and  _603
REMARK  246  A    between atoms: _602  and  _605
REMARK  247  A    between atoms: _605  and  _606
REMARK  248  A    between atoms: _611  and  _612
REMARK  249  A    between atoms: _614  and  _616
REMARK  250  A    between atoms: _616  and  _617
REMARK  251  A    between atoms: _616  and  _619
REMARK  252  A    between atoms: _619  and  _620
REMARK  253  A    between atoms: _620  and  _621
REMARK  254  A    between atoms: _621  and  _622
REMARK  255  A    between atoms: _631  and  _633
REMARK  256  A    between atoms: _633  and  _634
REMARK  257  A    between atoms: _633  and  _636
REMARK  258  A    between atoms: _636  and  _637
REMARK  259  A    between atoms: _640  and  _642
REMARK  260  A    between atoms: _642  and  _643
REMARK  261  A    between atoms: _642  and  _645
REMARK  262  A    between atoms: _647  and  _649
REMARK  263  A    between atoms: _649  and  _650
REMARK  264  A    between atoms: _649  and  _652
REMARK  265  A    between atoms: _652  and  _653
REMARK  266  A    between atoms: _653  and  _654
REMARK  267  A    between atoms: _654  and  _655
REMARK  268  A    between atoms: _655  and  _656
REMARK  269  A    between atoms: _660  and  _662
REMARK  270  A    between atoms: _662  and  _663
REMARK  271  A    between atoms: _662  and  _665
REMARK  272  A    between atoms: _665  and  _666
REMARK  273  A    between atoms: _669  and  _671
REMARK  274  A    between atoms: _671  and  _672
REMARK  275  A    between atoms: _671  and  _674
REMARK  276  A    between atoms: _674  and  _675
REMARK  277  A    between atoms: _678  and  _680
REMARK  278  A    between atoms: _680  and  _681
REMARK  279  A    between atoms: _680  and  _683
REMARK  280  A    between atoms: _686  and  _688
REMARK  281  A    between atoms: _688  and  _689
REMARK  282  A    between atoms: _688  and  _691
REMARK  283  A    between atoms: _691  and  _692
REMARK  284  A    between atoms: _695  and  _697
REMARK  285  A    between atoms: _697  and  _698
REMARK  286  A    between atoms: _697  and  _700
REMARK  287  A    between atoms: _700  and  _701
REMARK                            x       y       z     vdW  Elec       q    Type
REMARK                         _______ _______ _______ _____ _____    ______ ____
ROOT
ATOM      1  CA  ARG A   8      16.827  17.805  40.509  0.00  0.00    +0.149 C 
ENDROOT
BRANCH   1   3
ATOM      2  C   LEU A   7      17.203  19.935  41.595  0.00  0.00    +0.241 C 
ATOM      3  N   ARG A   8      16.351  18.956  41.278  0.00  0.00    -0.297 N 
ATOM      4  H   ARG A   8      15.356  19.011  41.576  0.00  0.00    +0.150 HD
ATOM      5  O   LEU A   7      18.381  19.931  41.213  0.00  0.00    -0.273 OA
BRANCH   2   6
ATOM      6  CA  LEU A   7      16.670  21.056  42.500  0.00  0.00    +0.149 C 
BRANCH   6   8
ATOM      7  C   MET A   6      15.477  22.333  40.805  0.00  0.00    +0.241 C 
ATOM      8  N   LEU A   7      15.459  21.677  41.971  0.00  0.00    -0.297 N 
ATOM      9  H   LEU A   7      14.571  21.609  42.508  0.00  0.00    +0.150 HD
ATOM     10  O   MET A   6      16.510  22.501  40.150  0.00  0.00    -0.273 OA
BRANCH   7  11
ATOM     11  CA  MET A   6      14.147  22.889  40.287  0.00  0.00    +0.149 C 
BRANCH  11  13
ATOM     12  C   ILE A   5      13.109  20.762  39.839  0.00  0.00    +0.241 C 
ATOM     13  N   MET A   6      13.050  21.945  40.450  0.00  0.00    -0.297 N 
ATOM     14  H   MET A   6      12.228  22.192  41.038  0.00  0.00    +0.150 HD
ATOM     15  O   ILE A   5      14.051  20.439  39.072  0.00  0.00    -0.273 OA
BRANCH  12  16
ATOM     16  CA  ILE A   5      11.938  19.783  40.082  0.00  0.00    +0.149 C 
BRANCH  16  19
ATOM     17  C   VAL A   4      12.573  19.369  42.375  0.00  0.00    +0.241 C 
ATOM     18  O   VAL A   4      13.664  18.944  42.000  0.00  0.00    -0.273 OA
ATOM     19  N   ILE A   5      11.638  19.764  41.516  0.00  0.00    -0.297 N 
ATOM     20  H   ILE A   5      10.701  20.057  41.859  0.00  0.00    +0.150 HD
BRANCH  17  21
ATOM     21  CA  VAL A   4      12.256  19.457  43.859  0.00  0.00    +0.149 C 
BRANCH  21  23
ATOM     22  C   GLU A   3      11.966  21.837  43.980  0.00  0.00    +0.241 C 
ATOM     23  N   VAL A   4      11.439  20.621  44.101  0.00  0.00    -0.297 N 
ATOM     24  H   VAL A   4      10.440  20.510  44.369  0.00  0.00    +0.150 HD
ATOM     25  O   GLU A   3      13.130  21.999  43.645  0.00  0.00    -0.273 OA
BRANCH  22  26
ATOM     26  CA  GLU A   3      11.045  23.037  44.259  0.00  0.00    +0.149 C 
BRANCH  26  28
ATOM     27  C   ILE A   2       9.598  22.788  42.320  0.00  0.00    +0.241 C 
ATOM     28  N   GLU A   3       9.738  22.826  43.642  0.00  0.00    -0.297 N 
ATOM     29  H   GLU A   3       8.901  22.703  44.248  0.00  0.00    +0.150 HD
ATOM     30  O   ILE A   2      10.557  22.925  41.528  0.00  0.00    -0.273 OA
BRANCH  27  31
ATOM     31  CA  ILE A   2       8.187  22.533  41.793  0.00  0.00    +0.148 C 
BRANCH  31  33
ATOM     32  C   ALA A   1       7.791  20.391  42.771  0.00  0.00    +0.238 C 
ATOM     33  N   ILE A   2       7.401  21.647  42.634  0.00  0.00    -0.297 N 
ATOM     34  H   ILE A   2       6.549  21.994  43.119  0.00  0.00    +0.150 HD
ATOM     35  O   ALA A   1       8.836  19.962  42.267  0.00  0.00    -0.274 OA
BRANCH  32  36
ATOM     36  CA  ALA A   1       6.907  19.478  43.613  0.00  0.00    +0.145 C 
ATOM     37  CB  ALA A   1       5.560  19.274  42.923  0.00  0.00    +0.028 C 
BRANCH  36  38
ATOM     38  N   ALA A   1       6.694  19.891  44.993  0.00  0.00    -0.238 NA
ATOM     39  H   ALA A   1       5.757  19.750  45.421  0.00  0.00    +0.142 HD
ENDBRANCH  36  38
ENDBRANCH  32  36
ENDBRANCH  31  33
BRANCH  31  40
ATOM     40  CB  ILE A   2       7.429  23.872  41.517  0.00  0.00    +0.027 C 
ATOM     41  CG2 ILE A   2       7.418  24.763  42.765  0.00  0.00    +0.002 C 
BRANCH  40  42
ATOM     42  CG1 ILE A   2       8.068  24.599  40.324  0.00  0.00    +0.002 C 
ATOM     43  CD1 ILE A   2       8.081  23.809  39.024  0.00  0.00    +0.000 C 
ENDBRANCH  40  42
ENDBRANCH  31  40
ENDBRANCH  27  31
ENDBRANCH  26  28
BRANCH  26  44
ATOM     44  CB  GLU A   3      10.889  23.244  45.773  0.00  0.00    +0.041 C 
BRANCH  44  45
ATOM     45  CG  GLU A   3      10.092  24.472  46.150  0.00  0.00    +0.116 C 
BRANCH  45  46
ATOM     46  CD  GLU A   3       9.974  24.636  47.669  0.00  0.00    +0.365 C 
ATOM     47  OE2 GLU A   3      10.744  23.982  48.416  0.00  0.00    -0.246 OA
ATOM     48  OE1 GLU A   3       9.112  25.410  48.127  0.00  0.00    -0.246 OA
ENDBRANCH  45  46
ENDBRANCH  44  45
ENDBRANCH  26  44
ENDBRANCH  22  26
ENDBRANCH  21  23
BRANCH  21  49
ATOM     49  CB  VAL A   4      11.555  18.202  44.370  0.00  0.00    +0.027 C 
ATOM     50  CG2 VAL A   4      11.273  18.371  45.841  0.00  0.00    +0.002 C 
ATOM     51  CG1 VAL A   4      12.435  16.973  44.124  0.00  0.00    +0.002 C 
ENDBRANCH  21  49
ENDBRANCH  17  21
ENDBRANCH  16  19
BRANCH  16  52
ATOM     52  CB  ILE A   5      10.685  20.237  39.262  0.00  0.00    +0.027 C 
ATOM     53  CG2 ILE A   5      11.108  20.999  38.006  0.00  0.00    +0.002 C 
BRANCH  52  54
ATOM     54  CG1 ILE A   5       9.876  19.021  38.787  0.00  0.00    +0.002 C 
ATOM     55  CD1 ILE A   5       9.450  18.117  39.818  0.00  0.00    +0.000 C 
ENDBRANCH  52  54
ENDBRANCH  16  52
ENDBRANCH  12  16
ENDBRANCH  11  13
BRANCH  11  56
ATOM     56  CB  MET A   6      13.811  24.219  40.958  0.00  0.00    +0.041 C 
BRANCH  56  57
ATOM     57  CG  MET A   6      12.700  24.964  40.219  0.00  0.00    +0.060 C 
BRANCH  57  58
ATOM     58  SD  MET A   6      12.184  26.434  41.124  0.00  0.00    -0.139 S 
ATOM     59  CE  MET A   6      10.940  27.107  40.006  0.00  0.00    +0.069 C 
ENDBRANCH  57  58
ENDBRANCH  56  57
ENDBRANCH  11  56
ENDBRANCH   7  11
ENDBRANCH   6   8
BRANCH   6  60
ATOM     60  CB  LEU A   7      16.423  20.433  43.896  0.00  0.00    +0.029 C 
BRANCH  60  61
ATOM     61  CG  LEU A   7      16.303  21.327  45.118  0.00  0.00    +0.002 C 
ATOM     62  CD2 LEU A   7      15.936  20.458  46.298  0.00  0.00    +0.000 C 
ATOM     63  CD1 LEU A   7      17.616  22.056  45.384  0.00  0.00    +0.000 C 
ENDBRANCH  60  61
ENDBRANCH   6  60
ENDBRANCH   2   6
ENDBRANCH   1   3
BRANCH   1  64
ATOM     64  C   ARG A   8      17.287  18.225  39.110  0.00  0.00    +0.241 C 
ATOM     65  N   SER A   9      16.717  19.305  38.590  0.00  0.00    -0.295 N 
ATOM     66  H   SER A   9      15.990  19.817  39.129  0.00  0.00    +0.150 HD
ATOM     67  O   ARG A   8      18.161  17.603  38.537  0.00  0.00    -0.273 OA
BRANCH  65  68
ATOM     68  CA  SER A   9      17.105  19.776  37.267  0.00  0.00    +0.178 C 
BRANCH  68  69
ATOM     69  C   SER A   9      18.533  20.298  37.211  0.00  0.00    +0.243 C 
ATOM     70  N   ASN A  10      19.144  20.529  38.372  0.00  0.00    -0.297 N 
ATOM     71  H   ASN A  10      18.647  20.342  39.266  0.00  0.00    +0.150 HD
ATOM     72  O   SER A   9      19.083  20.472  36.125  0.00  0.00    -0.273 OA
BRANCH  70  73
ATOM     73  CA  ASN A  10      20.517  21.047  38.391  0.00  0.00    +0.158 C 
BRANCH  73  74
ATOM     74  C   ASN A  10      21.473  20.052  37.748  0.00  0.00    +0.241 C 
ATOM     75  N   GLU A  11      21.057  18.785  37.714  0.00  0.00    -0.297 N 
ATOM     76  H   GLU A  11      20.122  18.545  38.100  0.00  0.00    +0.150 HD
ATOM     77  O   ASN A  10      22.534  20.430  37.265  0.00  0.00    -0.273 OA
BRANCH  75  78
ATOM     78  CA  GLU A  11      21.886  17.733  37.147  0.00  0.00    +0.149 C 
BRANCH  78  79
ATOM     79  C   GLU A  11      22.004  17.894  35.620  0.00  0.00    +0.241 C 
ATOM     80  O   GLU A  11      23.014  17.537  35.055  0.00  0.00    -0.273 OA
ATOM     81  N   SER A  12      20.979  18.439  34.954  0.00  0.00    -0.295 N 
ATOM     82  H   SER A  12      20.112  18.704  35.464  0.00  0.00    +0.150 HD
BRANCH  81  83
ATOM     83  CA  SER A  12      21.073  18.666  33.500  0.00  0.00    +0.178 C 
BRANCH  83  84
ATOM     84  C   SER A  12      21.528  20.095  33.198  0.00  0.00    +0.243 C 
ATOM     85  N   PHE A  13      21.389  20.983  34.169  0.00  0.00    -0.298 N 
ATOM     86  H   PHE A  13      20.964  20.701  35.075  0.00  0.00    +0.150 HD
ATOM     87  O   SER A  12      21.958  20.396  32.079  0.00  0.00    -0.273 OA
BRANCH  85  88
ATOM     88  CA  PHE A  13      21.832  22.353  33.967  0.00  0.00    +0.141 C 
BRANCH  88  89
ATOM     89  C   PHE A  13      23.349  22.338  33.789  0.00  0.00    +0.227 C 
ATOM     90  O   PHE A  13      24.068  21.594  34.450  0.00  0.00    -0.286 OA
ENDBRANCH  88  89
BRANCH  88  91
ATOM     91  CB  PHE A  13      21.504  23.219  35.189  0.00  0.00    +0.054 C 
BRANCH  91  92
ATOM     92  CG  PHE A  13      21.770  24.675  34.976  0.00  0.00    -0.020 A 
ATOM     93  CD2 PHE A  13      22.904  25.281  35.503  0.00  0.00    -0.004 A 
ATOM     94  CE2 PHE A  13      23.201  26.619  35.227  0.00  0.00    -0.000 A 
ATOM     95  CZ  PHE A  13      22.343  27.341  34.419  0.00  0.00    -0.000 A 
ATOM     96  CE1 PHE A  13      21.209  26.741  33.901  0.00  0.00    -0.000 A 
ATOM     97  CD1 PHE A  13      20.924  25.419  34.177  0.00  0.00    -0.004 A 
ENDBRANCH  91  92
ENDBRANCH  88  91
ENDBRANCH  85  88
ENDBRANCH  83  84
BRANCH  83  98
ATOM     98  CB  SER A  12      19.728  18.392  32.804  0.00  0.00    +0.166 C 
BRANCH  98  99
ATOM     99  OG  SER A  12      18.731  19.299  33.246  0.00  0.00    -0.380 OA
ATOM    100  H   SER A  12      18.608  19.202  34.224  0.00  0.00    +0.211 HD
ENDBRANCH  98  99
ENDBRANCH  83  98
ENDBRANCH  81  83
ENDBRANCH  78  79
BRANCH  78 101
ATOM    101  CB  GLU A  11      21.315  16.378  37.583  0.00  0.00    +0.041 C 
BRANCH 101 102
ATOM    102  CG  GLU A  11      22.145  15.195  37.188  0.00  0.00    +0.116 C 
BRANCH 102 103
ATOM    103  CD  GLU A  11      21.810  13.911  37.991  0.00  0.00    +0.365 C 
ATOM    104  OE2 GLU A  11      21.110  13.922  39.056  0.00  0.00    -0.246 OA
ATOM    105  OE1 GLU A  11      22.287  12.857  37.549  0.00  0.00    -0.246 OA
ENDBRANCH 102 103
ENDBRANCH 101 102
ENDBRANCH  78 101
ENDBRANCH  75  78
ENDBRANCH  73  74
BRANCH  73 106
ATOM    106  CB  ASN A  10      20.953  21.345  39.844  0.00  0.00    +0.114 C 
BRANCH 106 107
ATOM    107  CG  ASN A  10      22.202  22.203  39.938  0.00  0.00    +0.222 C 
ATOM    108  OD1 ASN A  10      23.221  21.764  40.491  0.00  0.00    -0.275 OA
ATOM    109  ND2 ASN A  10      22.128  23.443  39.424  0.00  0.00    -0.329 N 
ATOM    110 HD21 ASN A  10      22.949  24.079  39.481  0.00  0.00    +0.145 HD
ATOM    111 HD22 ASN A  10      21.250  23.766  38.969  0.00  0.00    +0.145 HD
ENDBRANCH 106 107
ENDBRANCH  73 106
ENDBRANCH  70  73
ENDBRANCH  68  69
BRANCH  68 112
ATOM    112  CB  SER A   9      16.158  20.874  36.782  0.00  0.00    +0.166 C 
BRANCH 112 113
ATOM    113  OG  SER A   9      16.506  22.157  37.310  0.00  0.00    -0.380 OA
ATOM    114  H   SER A   9      16.465  22.128  38.299  0.00  0.00    +0.211 HD
ENDBRANCH 112 113
ENDBRANCH  68 112
ENDBRANCH  65  68
ENDBRANCH   1  64
BRANCH   1 115
ATOM    115  CB  ARG A   8      15.736  16.723  40.417  0.00  0.00    +0.033 C 
BRANCH 115 116
ATOM    116  CG  ARG A   8      14.587  16.967  39.420  0.00  0.00    +0.045 C 
BRANCH 116 117
ATOM    117  CD  ARG A   8      13.315  16.221  39.816  0.00  0.00    +0.174 C 
BRANCH 117 118
ATOM    118  NE  ARG A   8      13.534  14.790  39.990  0.00  0.00    -0.265 N 
ATOM    119  HE  ARG A   8      13.754  14.451  40.948  0.00  0.00    +0.259 HD
ATOM    120  CZ  ARG A   8      13.474  13.885  39.019  0.00  0.00    +0.342 C 
ATOM    121  NH2 ARG A   8      13.725  12.610  39.299  0.00  0.00    -0.292 N 
ATOM    122 HH21 ARG A   8      13.966  12.329  40.271  0.00  0.00    +0.255 HD
ATOM    123 HH22 ARG A   8      13.681  11.894  38.546  0.00  0.00    +0.255 HD
ATOM    124  NH1 ARG A   8      13.186  14.254  37.780  0.00  0.00    -0.292 N 
ATOM    125 HH11 ARG A   8      13.006  15.255  37.564  0.00  0.00    +0.255 HD
ATOM    126 HH12 ARG A   8      13.140  13.542  37.023  0.00  0.00    +0.255 HD
ENDBRANCH 117 118
ENDBRANCH 116 117
ENDBRANCH 115 116
ENDBRANCH   1 115
TORSDOF 54
REMARK  Name = ../refined-set-2016/1ie9/1ie9_pocket.pdb
REMARK  287 active torsions:
REMARK  status: ('A' for Active; 'I' for Inactive)
REMARK    1  A    between atoms: _1  and  _3
REMARK    2  A    between atoms: _3  and  _4
REMARK    3  A    between atoms: _3  and  _6
REMARK    4  A    between atoms: _6  and  _7
REMARK    5  A    between atoms: _10  and  _12
REMARK    6  A    between atoms: _12  and  _13
REMARK    7  A    between atoms: _12  and  _15
REMARK    8  A    between atoms: _15  and  _16
REMARK    9  A    between atoms: _21  and  _22
REMARK   10  A    between atoms: _24  and  _26
REMARK   11  A    between atoms: _26  and  _27
REMARK   12  A    between atoms: _26  and  _29
REMARK   13  A    between atoms: _29  and  _30
REMARK   14  A    between atoms: _34  and  _35
REMARK   15  A    between atoms: _40  and  _42
REMARK   16  A    between atoms: _42  and  _43
REMARK   17  A    between atoms: _42  and  _45
REMARK   18  A    between atoms: _45  and  _46
REMARK   19  A    between atoms: _51  and  _52
REMARK   20  A    between atoms: _54  and  _56
REMARK   21  A    between atoms: _56  and  _57
REMARK   22  A    between atoms: _56  and  _59
REMARK   23  A    between atoms: _59  and  _60
REMARK   24  A    between atoms: _66  and  _68
REMARK   25  A    between atoms: _68  and  _69
REMARK   26  A    between atoms: _68  and  _71
REMARK   27  A    between atoms: _71  and  _72
REMARK   28  A    between atoms: _78  and  _80
REMARK   29  A    between atoms: _80  and  _81
REMARK   30  A    between atoms: _80  and  _83
REMARK   31  A    between atoms: _83  and  _84
REMARK   32  A    between atoms: _84  and  _85
REMARK   33  A    between atoms: _85  and  _86
REMARK   34  A    between atoms: _95  and  _97
REMARK   35  A    between atoms: _97  and  _98
REMARK   36  A    between atoms: _97  and  _100
REMARK   37  A    between atoms: _100  and  _101
REMARK   38  A    between atoms: _104  and  _106
REMARK   39  A    between atoms: _106  and  _107
REMARK   40  A    between atoms: _106  and  _109
REMARK   41  A    between atoms: _109  and  _110
REMARK   42  A    between atoms: _110  and  _111
REMARK   43  A    between atoms: _113  and  _115
REMARK   44  A    between atoms: _115  and  _116
REMARK   45  A    between atoms: _115  and  _118
REMARK   46  A    between atoms: _118  and  _119
REMARK   47  A    between atoms: _123  and  _124
REMARK   48  A    between atoms: _129  and  _131
REMARK   49  A    between atoms: _131  and  _132
REMARK   50  A    between atoms: _131  and  _134
REMARK   51  A    between atoms: _134  and  _135
REMARK   52  A    between atoms: _140  and  _142
REMARK   53  A    between atoms: _142  and  _143
REMARK   54  A    between atoms: _142  and  _145
REMARK   55  A    between atoms: _145  and  _146
REMARK   56  A    between atoms: _149  and  _151
REMARK   57  A    between atoms: _151  and  _152
REMARK   58  A    between atoms: _155  and  _157
REMARK   59  A    between atoms: _157  and  _158
REMARK   60  A    between atoms: _157  and  _160
REMARK   61  A    between atoms: _160  and  _161
REMARK   62  A    between atoms: _164  and  _166
REMARK   63  A    between atoms: _166  and  _167
REMARK   64  A    between atoms: _166  and  _169
REMARK   65  A    between atoms: _169  and  _170
REMARK   66  A    between atoms: _173  and  _175
REMARK   67  A    between atoms: _175  and  _176
REMARK   68  A    between atoms: _175  and  _178
REMARK   69  A    between atoms: _181  and  _183
REMARK   70  A    between atoms: _183  and  _184
REMARK   71  A    between atoms: _183  and  _186
REMARK   72  A    between atoms: _186  and  _187
REMARK   73  A    between atoms: _189  and  _191
REMARK   74  A    between atoms: _191  and  _192
REMARK   75  A    between atoms: _191  and  _194
REMARK   76  A    between atoms: _194  and  _195
REMARK   77  A    between atoms: _200  and  _201
REMARK   78  A    between atoms: _203  and  _205
REMARK   79  A    between atoms: _205  and  _206
REMARK   80  A    between atoms: _205  and  _208
REMARK   81  A    between atoms: _208  and  _209
REMARK   82  A    between atoms: _211  and  _213
REMARK   83  A    between atoms: _213  and  _214
REMARK   84  A    between atoms: _213  and  _216
REMARK   85  A    between atoms: _216  and  _217
REMARK   86  A    between atoms: _220  and  _222
REMARK   87  A    between atoms: _222  and  _223
REMARK   88  A    between atoms: _222  and  _225
REMARK   89  A    between atoms: _225  and  _226
REMARK   90  A    between atoms: _226  and  _227
REMARK   91  A    between atoms: _227  and  _228
REMARK   92  A    between atoms: _228  and  _229
REMARK   93  A    between atoms: _233  and  _235
REMARK   94  A    between atoms: _235  and  _236
REMARK   95  A    between atoms: _235  and  _238
REMARK   96  A    between atoms: _241  and  _243
REMARK   97  A    between atoms: _243  and  _244
REMARK   98  A    between atoms: _247  and  _249
REMARK   99  A    between atoms: _249  and  _250
REMARK  100  A    between atoms: _249  and  _252
REMARK  101  A    between atoms: _252  and  _253
REMARK  102  A    between atoms: _256  and  _258
REMARK  103  A    between atoms: _258  and  _259
REMARK  104  A    between atoms: _258  and  _261
REMARK  105  A    between atoms: _261  and  _262
REMARK  106  A    between atoms: _262  and  _263
REMARK  107  A    between atoms: _266  and  _268
REMARK  108  A    between atoms: _268  and  _269
REMARK  109  A    between atoms: _268  and  _271
REMARK  110  A    between atoms: _274  and  _276
REMARK  111  A    between atoms: _276  and  _277
REMARK  112  A    between atoms: _276  and  _279
REMARK  113  A    between atoms: _279  and  _280
REMARK  114  A    between atoms: _283  and  _285
REMARK  115  A    between atoms: _285  and  _286
REMARK  116  A    between atoms: _285  and  _288
REMARK  117  A    between atoms: _288  and  _289
REMARK  118  A    between atoms: _289  and  _290
REMARK  119  A    between atoms: _292  and  _294
REMARK  120  A    between atoms: _294  and  _295
REMARK  121  A    between atoms: _294  and  _297
REMARK  122  A    between atoms: _297  and  _298
REMARK  123  A    between atoms: _301  and  _303
REMARK  124  A    between atoms: _303  and  _304
REMARK  125  A    between atoms: _303  and  _306
REMARK  126  A    between atoms: _306  and  _307
REMARK  127  A    between atoms: _307  and  _308
REMARK  128  A    between atoms: _308  and  _309
REMARK  129  A    between atoms: _318  and  _320
REMARK  130  A    between atoms: _320  and  _321
REMARK  131  A    between atoms: _320  and  _323
REMARK  132  A    between atoms: _323  and  _324
REMARK  133  A    between atoms: _326  and  _328
REMARK  134  A    between atoms: _328  and  _329
REMARK  135  A    between atoms: _328  and  _331
REMARK  136  A    between atoms: _331  and  _332
REMARK  137  A    between atoms: _337  and  _339
REMARK  138  A    between atoms: _339  and  _340
REMARK  139  A    between atoms: _339  and  _342
REMARK  140  A    between atoms: _342  and  _343
REMARK  141  A    between atoms: _343  and  _344
REMARK  142  A    between atoms: _347  and  _349
REMARK  143  A    between atoms: _349  and  _350
REMARK  144  A    between atoms: _349  and  _352
REMARK  145  A    between atoms: _352  and  _353
REMARK  146  A    between atoms: _355  and  _357
REMARK  147  A    between atoms: _357  and  _358
REMARK  148  A    between atoms: _357  and  _360
REMARK  149  A    between atoms: _360  and  _361
REMARK  150  A    between atoms: _367  and  _369
REMARK  151  A    between atoms: _369  and  _370
REMARK  152  A    between atoms: _369  and  _372
REMARK  153  A    between atoms: _372  and  _373
REMARK  154  A    between atoms: _375  and  _377
REMARK  155  A    between atoms: _377  and  _378
REMARK  156  A    between atoms: _377  and  _380
REMARK  157  A    between atoms: _380  and  _381
REMARK  158  A    between atoms: _391  and  _393
REMARK  159  A    between atoms: _393  and  _394
REMARK  160  A    between atoms: _393  and  _396
REMARK  161  A    between atoms: _396  and  _397
REMARK  162  A    between atoms: _400  and  _402
REMARK  163  A    between atoms: _402  and  _403
REMARK  164  A    between atoms: _402  and  _405
REMARK  165  A    between atoms: _407  and  _409
REMARK  166  A    between atoms: _409  and  _410
REMARK  167  A    between atoms: _409  and  _412
REMARK  168  A    between atoms: _412  and  _413
REMARK  169  A    between atoms: _418  and  _419
REMARK  170  A    between atoms: _421  and  _423
REMARK  171  A    between atoms: _423  and  _424
REMARK  172  A    between atoms: _423  and  _426
REMARK  173  A    between atoms: _426  and  _427
REMARK  174  A    between atoms: _427  and  _428
REMARK  175  A    between atoms: _428  and  _429
REMARK  176  A    between atoms: _429  and  _430
REMARK  177  A    between atoms: _434  and  _436
REMARK  178  A    between atoms: _436  and  _437
REMARK  179  A    between atoms: _436  and  _439
REMARK  180  A    between atoms: _439  and  _440
REMARK  181  A    between atoms: _445  and  _446
REMARK  182  A    between atoms: _448  and  _450
REMARK  183  A    between atoms: _450  and  _451
REMARK  184  A    between atoms: _450  and  _453
REMARK  185  A    between atoms: _453  and  _454
REMARK  186  A    between atoms: _454  and  _455
REMARK  187  A    between atoms: _455  and  _456
REMARK  188  A    between atoms: _465  and  _467
REMARK  189  A    between atoms: _467  and  _468
REMARK  190  A    between atoms: _467  and  _470
REMARK  191  A    between atoms: _473  and  _475
REMARK  192  A    between atoms: _475  and  _476
REMARK  193  A    between atoms: _475  and  _478
REMARK  194  A    between atoms: _478  and  _479
REMARK  195  A    between atoms: _482  and  _484
REMARK  196  A    between atoms: _484  and  _485
REMARK  197  A    between atoms: _484  and  _487
REMARK  198  A    between atoms: _490  and  _492
REMARK  199  A    between atoms: _492  and  _493
REMARK  200  A    between atoms: _492  and  _495
REMARK  201  A    between atoms: _495  and  _496
REMARK  202  A    between atoms: _499  and  _501
REMARK  203  A    between atoms: _501  and  _502
REMARK  204  A    between atoms: _505  and  _507
REMARK  205  A    between atoms: _507  and  _508
REMARK  206  A    between atoms: _510  and  _512
REMARK  207  A    between atoms: _512  and  _513
REMARK  208  A    between atoms: _512  and  _515
REMARK  209  A    between atoms: _515  and  _516
REMARK  210  A    between atoms: _521  and  _523
REMARK  211  A    between atoms: _523  and  _524
REMARK  212  A    between atoms: _523  and  _526
REMARK  213  A    between atoms: _526  and  _527
REMARK  214  A    between atoms: _530  and  _532
REMARK  215  A    between atoms: _532  and  _533
REMARK  216  A    between atoms: _532  and  _535
REMARK  217  A    between atoms: _535  and  _536
REMARK  218  A    between atoms: _539  and  _541
REMARK  219  A    between atoms: _541  and  _542
REMARK  220  A    between atoms: _541  and  _544
REMARK  221  A    between atoms: _544  and  _545
REMARK  222  A    between atoms: _548  and  _550
REMARK  223  A    between atoms: _550  and  _551
REMARK  224  A    between atoms: _550  and  _553
REMARK  225  A    between atoms: _553  and  _554
REMARK  226  A    between atoms: _554  and  _555
REMARK  227  A    between atoms: _560  and  _562
REMARK  228  A    between atoms: _562  and  _563
REMARK  229  A    between atoms: _562  and  _565
REMARK  230  A    between atoms: _565  and  _566
REMARK  231  A    between atoms: _569  and  _571
REMARK  232  A    between atoms: _571  and  _572
REMARK  233  A    between atoms: _571  and  _574
REMARK  234  A    between atoms: _574  and  _575
REMARK  235  A    between atoms: _580  and  _582
REMARK  236  A    between atoms: _582  and  _583
REMARK  237  A    between atoms: _582  and  _585
REMARK  238  A    between atoms: _585  and  _586
REMARK  239  A    between atoms: _588  and  _590
REMARK  240  A    between atoms: _590  and  _591
REMARK  241  A    between atoms: _590  and  _593
REMARK  242  A    between atoms: _593  and  _594
REMARK  243  A    between atoms: _594  and  _595
REMARK  244  A    between atoms: _600  and  _602
REMARK  245  A    between atoms: _602  and  _603
REMARK  246  A    between atoms: _602  and  _605
REMARK  247  A    between atoms: _605  and  _606
REMARK  248  A    between atoms: _611  and  _612
REMARK  249  A    between atoms: _614  and  _616
REMARK  250  A    between atoms: _616  and  _617
REMARK  251  A    between atoms: _616  and  _619
REMARK  252  A    between atoms: _619  and  _620
REMARK  253  A    between atoms: _620  and  _621
REMARK  254  A    between atoms: _621  and  _622
REMARK  255  A    between atoms: _631  and  _633
REMARK  256  A    between atoms: _633  and  _634
REMARK  257  A    between atoms: _633  and  _636
REMARK  258  A    between atoms: _636  and  _637
REMARK  259  A    between atoms: _640  and  _642
REMARK  260  A    between atoms: _642  and  _643
REMARK  261  A    between atoms: _642  and  _645
REMARK  262  A    between atoms: _647  and  _649
REMARK  263  A    between atoms: _649  and  _650
REMARK  264  A    between atoms: _649  and  _652
REMARK  265  A    between atoms: _652  and  _653
REMARK  266  A    between atoms: _653  and  _654
REMARK  267  A    between atoms: _654  and  _655
REMARK  268  A    between atoms: _655  and  _656
REMARK  269  A    between atoms: _660  and  _662
REMARK  270  A    between atoms: _662  and  _663
REMARK  271  A    between atoms: _662  and  _665
REMARK  272  A    between atoms: _665  and  _666
REMARK  273  A    between atoms: _669  and  _671
REMARK  274  A    between atoms: _671  and  _672
REMARK  275  A    between atoms: _671  and  _674
REMARK  276  A    between atoms: _674  and  _675
REMARK  277  A    between atoms: _678  and  _680
REMARK  278  A    between atoms: _680  and  _681
REMARK  279  A    between atoms: _680  and  _683
REMARK  280  A    between atoms: _686  and  _688
REMARK  281  A    between atoms: _688  and  _689
REMARK  282  A    between atoms: _688  and  _691
REMARK  283  A    between atoms: _691  and  _692
REMARK  284  A    between atoms: _695  and  _697
REMARK  285  A    between atoms: _697  and  _698
REMARK  286  A    between atoms: _697  and  _700
REMARK  287  A    between atoms: _700  and  _701
REMARK                            x       y       z     vdW  Elec       q    Type
REMARK                         _______ _______ _______ _____ _____    ______ ____
ROOT
ATOM      1  CA  TRP A   2      19.438  22.503  30.821  0.00  0.00    +0.153 C 
ENDROOT
BRANCH   1   4
ATOM      2  C   SER A   1      20.821  24.446  30.389  0.00  0.00    +0.241 C 
ATOM      3  O   SER A   1      21.734  24.009  31.080  0.00  0.00    -0.274 OA
ATOM      4  N   TRP A   2      19.651  23.834  30.267  0.00  0.00    -0.297 N 
ATOM      5  H   TRP A   2      18.873  24.311  29.768  0.00  0.00    +0.150 HD
BRANCH   2   6
ATOM      6  CA  SER A   1      20.972  25.762  29.637  0.00  0.00    +0.174 C 
BRANCH   6   7
ATOM      7  N   SER A   1      22.203  26.427  30.070  0.00  0.00    -0.236 NA
ATOM      8  H   SER A   1      23.091  25.886  30.091  0.00  0.00    +0.142 HD
ENDBRANCH   6   7
BRANCH   6   9
ATOM      9  CB  SER A   1      21.056  25.424  28.153  0.00  0.00    +0.163 C 
BRANCH   9  10
ATOM     10  OG  SER A   1      22.048  24.423  27.922  0.00  0.00    -0.380 OA
ATOM     11  H   SER A   1      22.929  24.757  28.226  0.00  0.00    +0.211 HD
ENDBRANCH   9  10
ENDBRANCH   6   9
ENDBRANCH   2   6
ENDBRANCH   1   4
BRANCH   1  12
ATOM     12  C   TRP A   2      19.628  21.636  29.568  0.00  0.00    +0.241 C 
ATOM     13  N   THR A   3      20.745  20.928  29.520  0.00  0.00    -0.295 N 
ATOM     14  H   THR A   3      21.394  20.941  30.332  0.00  0.00    +0.150 HD
ATOM     15  O   TRP A   2      18.801  21.632  28.661  0.00  0.00    -0.273 OA
BRANCH  13  16
ATOM     16  CA  THR A   3      21.079  20.133  28.351  0.00  0.00    +0.176 C 
BRANCH  16  17
ATOM     17  C   THR A   3      20.669  18.682  28.536  0.00  0.00    +0.243 C 
ATOM     18  O   THR A   3      21.278  17.956  29.321  0.00  0.00    -0.273 OA
ATOM     19  N   CYS A   4      19.628  18.278  27.804  0.00  0.00    -0.297 N 
ATOM     20  H   CYS A   4      19.195  18.944  27.133  0.00  0.00    +0.150 HD
BRANCH  19  21
ATOM     21  CA  CYS A   4      19.077  16.925  27.916  0.00  0.00    +0.149 C 
BRANCH  21  22
ATOM     22  CB  CYS A   4      17.641  16.990  28.438  0.00  0.00    +0.096 C 
ATOM     23  SG  CYS A   4      17.496  17.813  30.053  0.00  0.00    -0.080 S 
ENDBRANCH  21  22
BRANCH  21  24
ATOM     24  C   CYS A   4      19.078  16.129  26.623  0.00  0.00    +0.228 C 
ATOM     25  O   CYS A   4      18.266  15.234  26.446  0.00  0.00    -0.286 OA
ENDBRANCH  21  24
ENDBRANCH  19  21
ENDBRANCH  16  17
BRANCH  16  26
ATOM     26  CB  THR A   3      22.576  20.290  28.074  0.00  0.00    +0.137 C 
ATOM     27  CG2 THR A   3      23.037  19.357  27.010  0.00  0.00    +0.034 C 
BRANCH  26  28
ATOM     28  OG1 THR A   3      22.815  21.633  27.648  0.00  0.00    -0.382 OA
ATOM     29  HG1 THR A   3      22.534  22.259  28.361  0.00  0.00    +0.210 HD
ENDBRANCH  26  28
ENDBRANCH  16  26
ENDBRANCH  13  16
ENDBRANCH   1  12
BRANCH   1  30
ATOM     30  CB  TRP A   2      18.028  22.372  31.394  0.00  0.00    +0.057 C 
BRANCH  30  31
ATOM     31  CG  TRP A   2      17.818  23.098  32.702  0.00  0.00    -0.002 A 
ATOM     32  CD1 TRP A   2      17.940  22.568  33.970  0.00  0.00    +0.068 A 
ATOM     33  NE1 TRP A   2      17.548  23.486  34.910  0.00  0.00    -0.352 N 
ATOM     34  HE1 TRP A   2      17.536  23.327  35.938  0.00  0.00    +0.166 HD
ATOM     35  CE2 TRP A   2      17.174  24.645  34.283  0.00  0.00    +0.056 A 
ATOM     36  CZ2 TRP A   2      16.704  25.846  34.821  0.00  0.00    +0.017 A 
ATOM     37  CH2 TRP A   2      16.394  26.859  33.932  0.00  0.00    +0.001 A 
ATOM     38  CZ3 TRP A   2      16.546  26.698  32.551  0.00  0.00    +0.000 A 
ATOM     39  CE3 TRP A   2      17.017  25.503  32.015  0.00  0.00    +0.001 A 
ATOM     40  CD2 TRP A   2      17.338  24.448  32.888  0.00  0.00    +0.013 A 
ENDBRANCH  30  31
ENDBRANCH   1  30
TORSDOF 15
REMARK  Name = ../refined-set-2016/1ie9/1ie9_pocket.pdb
REMARK  287 active torsions:
REMARK  status: ('A' for Active; 'I' for Inactive)
REMARK    1  A    between atoms: _1  and  _3
REMARK    2  A    between atoms: _3  and  _4
REMARK    3  A    between atoms: _3  and  _6
REMARK    4  A    between atoms: _6  and  _7
REMARK    5  A    between atoms: _10  and  _12
REMARK    6  A    between atoms: _12  and  _13
REMARK    7  A    between atoms: _12  and  _15
REMARK    8  A    between atoms: _15  and  _16
REMARK    9  A    between atoms: _21  and  _22
REMARK   10  A    between atoms: _24  and  _26
REMARK   11  A    between atoms: _26  and  _27
REMARK   12  A    between atoms: _26  and  _29
REMARK   13  A    between atoms: _29  and  _30
REMARK   14  A    between atoms: _34  and  _35
REMARK   15  A    between atoms: _40  and  _42
REMARK   16  A    between atoms: _42  and  _43
REMARK   17  A    between atoms: _42  and  _45
REMARK   18  A    between atoms: _45  and  _46
REMARK   19  A    between atoms: _51  and  _52
REMARK   20  A    between atoms: _54  and  _56
REMARK   21  A    between atoms: _56  and  _57
REMARK   22  A    between atoms: _56  and  _59
REMARK   23  A    between atoms: _59  and  _60
REMARK   24  A    between atoms: _66  and  _68
REMARK   25  A    between atoms: _68  and  _69
REMARK   26  A    between atoms: _68  and  _71
REMARK   27  A    between atoms: _71  and  _72
REMARK   28  A    between atoms: _78  and  _80
REMARK   29  A    between atoms: _80  and  _81
REMARK   30  A    between atoms: _80  and  _83
REMARK   31  A    between atoms: _83  and  _84
REMARK   32  A    between atoms: _84  and  _85
REMARK   33  A    between atoms: _85  and  _86
REMARK   34  A    between atoms: _95  and  _97
REMARK   35  A    between atoms: _97  and  _98
REMARK   36  A    between atoms: _97  and  _100
REMARK   37  A    between atoms: _100  and  _101
REMARK   38  A    between atoms: _104  and  _106
REMARK   39  A    between atoms: _106  and  _107
REMARK   40  A    between atoms: _106  and  _109
REMARK   41  A    between atoms: _109  and  _110
REMARK   42  A    between atoms: _110  and  _111
REMARK   43  A    between atoms: _113  and  _115
REMARK   44  A    between atoms: _115  and  _116
REMARK   45  A    between atoms: _115  and  _118
REMARK   46  A    between atoms: _118  and  _119
REMARK   47  A    between atoms: _123  and  _124
REMARK   48  A    between atoms: _129  and  _131
REMARK   49  A    between atoms: _131  and  _132
REMARK   50  A    between atoms: _131  and  _134
REMARK   51  A    between atoms: _134  and  _135
REMARK   52  A    between atoms: _140  and  _142
REMARK   53  A    between atoms: _142  and  _143
REMARK   54  A    between atoms: _142  and  _145
REMARK   55  A    between atoms: _145  and  _146
REMARK   56  A    between atoms: _149  and  _151
REMARK   57  A    between atoms: _151  and  _152
REMARK   58  A    between atoms: _155  and  _157
REMARK   59  A    between atoms: _157  and  _158
REMARK   60  A    between atoms: _157  and  _160
REMARK   61  A    between atoms: _160  and  _161
REMARK   62  A    between atoms: _164  and  _166
REMARK   63  A    between atoms: _166  and  _167
REMARK   64  A    between atoms: _166  and  _169
REMARK   65  A    between atoms: _169  and  _170
REMARK   66  A    between atoms: _173  and  _175
REMARK   67  A    between atoms: _175  and  _176
REMARK   68  A    between atoms: _175  and  _178
REMARK   69  A    between atoms: _181  and  _183
REMARK   70  A    between atoms: _183  and  _184
REMARK   71  A    between atoms: _183  and  _186
REMARK   72  A    between atoms: _186  and  _187
REMARK   73  A    between atoms: _189  and  _191
REMARK   74  A    between atoms: _191  and  _192
REMARK   75  A    between atoms: _191  and  _194
REMARK   76  A    between atoms: _194  and  _195
REMARK   77  A    between atoms: _200  and  _201
REMARK   78  A    between atoms: _203  and  _205
REMARK   79  A    between atoms: _205  and  _206
REMARK   80  A    between atoms: _205  and  _208
REMARK   81  A    between atoms: _208  and  _209
REMARK   82  A    between atoms: _211  and  _213
REMARK   83  A    between atoms: _213  and  _214
REMARK   84  A    between atoms: _213  and  _216
REMARK   85  A    between atoms: _216  and  _217
REMARK   86  A    between atoms: _220  and  _222
REMARK   87  A    between atoms: _222  and  _223
REMARK   88  A    between atoms: _222  and  _225
REMARK   89  A    between atoms: _225  and  _226
REMARK   90  A    between atoms: _226  and  _227
REMARK   91  A    between atoms: _227  and  _228
REMARK   92  A    between atoms: _228  and  _229
REMARK   93  A    between atoms: _233  and  _235
REMARK   94  A    between atoms: _235  and  _236
REMARK   95  A    between atoms: _235  and  _238
REMARK   96  A    between atoms: _241  and  _243
REMARK   97  A    between atoms: _243  and  _244
REMARK   98  A    between atoms: _247  and  _249
REMARK   99  A    between atoms: _249  and  _250
REMARK  100  A    between atoms: _249  and  _252
REMARK  101  A    between atoms: _252  and  _253
REMARK  102  A    between atoms: _256  and  _258
REMARK  103  A    between atoms: _258  and  _259
REMARK  104  A    between atoms: _258  and  _261
REMARK  105  A    between atoms: _261  and  _262
REMARK  106  A    between atoms: _262  and  _263
REMARK  107  A    between atoms: _266  and  _268
REMARK  108  A    between atoms: _268  and  _269
REMARK  109  A    between atoms: _268  and  _271
REMARK  110  A    between atoms: _274  and  _276
REMARK  111  A    between atoms: _276  and  _277
REMARK  112  A    between atoms: _276  and  _279
REMARK  113  A    between atoms: _279  and  _280
REMARK  114  A    between atoms: _283  and  _285
REMARK  115  A    between atoms: _285  and  _286
REMARK  116  A    between atoms: _285  and  _288
REMARK  117  A    between atoms: _288  and  _289
REMARK  118  A    between atoms: _289  and  _290
REMARK  119  A    between atoms: _292  and  _294
REMARK  120  A    between atoms: _294  and  _295
REMARK  121  A    between atoms: _294  and  _297
REMARK  122  A    between atoms: _297  and  _298
REMARK  123  A    between atoms: _301  and  _303
REMARK  124  A    between atoms: _303  and  _304
REMARK  125  A    between atoms: _303  and  _306
REMARK  126  A    between atoms: _306  and  _307
REMARK  127  A    between atoms: _307  and  _308
REMARK  128  A    between atoms: _308  and  _309
REMARK  129  A    between atoms: _318  and  _320
REMARK  130  A    between atoms: _320  and  _321
REMARK  131  A    between atoms: _320  and  _323
REMARK  132  A    between atoms: _323  and  _324
REMARK  133  A    between atoms: _326  and  _328
REMARK  134  A    between atoms: _328  and  _329
REMARK  135  A    between atoms: _328  and  _331
REMARK  136  A    between atoms: _331  and  _332
REMARK  137  A    between atoms: _337  and  _339
REMARK  138  A    between atoms: _339  and  _340
REMARK  139  A    between atoms: _339  and  _342
REMARK  140  A    between atoms: _342  and  _343
REMARK  141  A    between atoms: _343  and  _344
REMARK  142  A    between atoms: _347  and  _349
REMARK  143  A    between atoms: _349  and  _350
REMARK  144  A    between atoms: _349  and  _352
REMARK  145  A    between atoms: _352  and  _353
REMARK  146  A    between atoms: _355  and  _357
REMARK  147  A    between atoms: _357  and  _358
REMARK  148  A    between atoms: _357  and  _360
REMARK  149  A    between atoms: _360  and  _361
REMARK  150  A    between atoms: _367  and  _369
REMARK  151  A    between atoms: _369  and  _370
REMARK  152  A    between atoms: _369  and  _372
REMARK  153  A    between atoms: _372  and  _373
REMARK  154  A    between atoms: _375  and  _377
REMARK  155  A    between atoms: _377  and  _378
REMARK  156  A    between atoms: _377  and  _380
REMARK  157  A    between atoms: _380  and  _381
REMARK  158  A    between atoms: _391  and  _393
REMARK  159  A    between atoms: _393  and  _394
REMARK  160  A    between atoms: _393  and  _396
REMARK  161  A    between atoms: _396  and  _397
REMARK  162  A    between atoms: _400  and  _402
REMARK  163  A    between atoms: _402  and  _403
REMARK  164  A    between atoms: _402  and  _405
REMARK  165  A    between atoms: _407  and  _409
REMARK  166  A    between atoms: _409  and  _410
REMARK  167  A    between atoms: _409  and  _412
REMARK  168  A    between atoms: _412  and  _413
REMARK  169  A    between atoms: _418  and  _419
REMARK  170  A    between atoms: _421  and  _423
REMARK  171  A    between atoms: _423  and  _424
REMARK  172  A    between atoms: _423  and  _426
REMARK  173  A    between atoms: _426  and  _427
REMARK  174  A    between atoms: _427  and  _428
REMARK  175  A    between atoms: _428  and  _429
REMARK  176  A    between atoms: _429  and  _430
REMARK  177  A    between atoms: _434  and  _436
REMARK  178  A    between atoms: _436  and  _437
REMARK  179  A    between atoms: _436  and  _439
REMARK  180  A    between atoms: _439  and  _440
REMARK  181  A    between atoms: _445  and  _446
REMARK  182  A    between atoms: _448  and  _450
REMARK  183  A    between atoms: _450  and  _451
REMARK  184  A    between atoms: _450  and  _453
REMARK  185  A    between atoms: _453  and  _454
REMARK  186  A    between atoms: _454  and  _455
REMARK  187  A    between atoms: _455  and  _456
REMARK  188  A    between atoms: _465  and  _467
REMARK  189  A    between atoms: _467  and  _468
REMARK  190  A    between atoms: _467  and  _470
REMARK  191  A    between atoms: _473  and  _475
REMARK  192  A    between atoms: _475  and  _476
REMARK  193  A    between atoms: _475  and  _478
REMARK  194  A    between atoms: _478  and  _479
REMARK  195  A    between atoms: _482  and  _484
REMARK  196  A    between atoms: _484  and  _485
REMARK  197  A    between atoms: _484  and  _487
REMARK  198  A    between atoms: _490  and  _492
REMARK  199  A    between atoms: _492  and  _493
REMARK  200  A    between atoms: _492  and  _495
REMARK  201  A    between atoms: _495  and  _496
REMARK  202  A    between atoms: _499  and  _501
REMARK  203  A    between atoms: _501  and  _502
REMARK  204  A    between atoms: _505  and  _507
REMARK  205  A    between atoms: _507  and  _508
REMARK  206  A    between atoms: _510  and  _512
REMARK  207  A    between atoms: _512  and  _513
REMARK  208  A    between atoms: _512  and  _515
REMARK  209  A    between atoms: _515  and  _516
REMARK  210  A    between atoms: _521  and  _523
REMARK  211  A    between atoms: _523  and  _524
REMARK  212  A    between atoms: _523  and  _526
REMARK  213  A    between atoms: _526  and  _527
REMARK  214  A    between atoms: _530  and  _532
REMARK  215  A    between atoms: _532  and  _533
REMARK  216  A    between atoms: _532  and  _535
REMARK  217  A    between atoms: _535  and  _536
REMARK  218  A    between atoms: _539  and  _541
REMARK  219  A    between atoms: _541  and  _542
REMARK  220  A    between atoms: _541  and  _544
REMARK  221  A    between atoms: _544  and  _545
REMARK  222  A    between atoms: _548  and  _550
REMARK  223  A    between atoms: _550  and  _551
REMARK  224  A    between atoms: _550  and  _553
REMARK  225  A    between atoms: _553  and  _554
REMARK  226  A    between atoms: _554  and  _555
REMARK  227  A    between atoms: _560  and  _562
REMARK  228  A    between atoms: _562  and  _563
REMARK  229  A    between atoms: _562  and  _565
REMARK  230  A    between atoms: _565  and  _566
REMARK  231  A    between atoms: _569  and  _571
REMARK  232  A    between atoms: _571  and  _572
REMARK  233  A    between atoms: _571  and  _574
REMARK  234  A    between atoms: _574  and  _575
REMARK  235  A    between atoms: _580  and  _582
REMARK  236  A    between atoms: _582  and  _583
REMARK  237  A    between atoms: _582  and  _585
REMARK  238  A    between atoms: _585  and  _586
REMARK  239  A    between atoms: _588  and  _590
REMARK  240  A    between atoms: _590  and  _591
REMARK  241  A    between atoms: _590  and  _593
REMARK  242  A    between atoms: _593  and  _594
REMARK  243  A    between atoms: _594  and  _595
REMARK  244  A    between atoms: _600  and  _602
REMARK  245  A    between atoms: _602  and  _603
REMARK  246  A    between atoms: _602  and  _605
REMARK  247  A    between atoms: _605  and  _606
REMARK  248  A    between atoms: _611  and  _612
REMARK  249  A    between atoms: _614  and  _616
REMARK  250  A    between atoms: _616  and  _617
REMARK  251  A    between atoms: _616  and  _619
REMARK  252  A    between atoms: _619  and  _620
REMARK  253  A    between atoms: _620  and  _621
REMARK  254  A    between atoms: _621  and  _622
REMARK  255  A    between atoms: _631  and  _633
REMARK  256  A    between atoms: _633  and  _634
REMARK  257  A    between atoms: _633  and  _636
REMARK  258  A    between atoms: _636  and  _637
REMARK  259  A    between atoms: _640  and  _642
REMARK  260  A    between atoms: _642  and  _643
REMARK  261  A    between atoms: _642  and  _645
REMARK  262  A    between atoms: _647  and  _649
REMARK  263  A    between atoms: _649  and  _650
REMARK  264  A    between atoms: _649  and  _652
REMARK  265  A    between atoms: _652  and  _653
REMARK  266  A    between atoms: _653  and  _654
REMARK  267  A    between atoms: _654  and  _655
REMARK  268  A    between atoms: _655  and  _656
REMARK  269  A    between atoms: _660  and  _662
REMARK  270  A    between atoms: _662  and  _663
REMARK  271  A    between atoms: _662  and  _665
REMARK  272  A    between atoms: _665  and  _666
REMARK  273  A    between atoms: _669  and  _671
REMARK  274  A    between atoms: _671  and  _672
REMARK  275  A    between atoms: _671  and  _674
REMARK  276  A    between atoms: _674  and  _675
REMARK  277  A    between atoms: _678  and  _680
REMARK  278  A    between atoms: _680  and  _681
REMARK  279  A    between atoms: _680  and  _683
REMARK  280  A    between atoms: _686  and  _688
REMARK  281  A    between atoms: _688  and  _689
REMARK  282  A    between atoms: _688  and  _691
REMARK  283  A    between atoms: _691  and  _692
REMARK  284  A    between atoms: _695  and  _697
REMARK  285  A    between atoms: _697  and  _698
REMARK  286  A    between atoms: _697  and  _700
REMARK  287  A    between atoms: _700  and  _701
REMARK                            x       y       z     vdW  Elec       q    Type
REMARK                         _______ _______ _______ _____ _____    ______ ____
ROOT
ATOM      1  CA  TYR A   3      16.238  24.070  27.263  0.00  0.00    +0.153 C 
ENDROOT
BRANCH   1   3
ATOM      2  C   LYS A   2      17.365  22.801  25.544  0.00  0.00    +0.241 C 
ATOM      3  N   TYR A   3      17.174  23.047  26.824  0.00  0.00    -0.297 N 
ATOM      4  H   TYR A   3      17.702  22.500  27.533  0.00  0.00    +0.150 HD
ATOM      5  O   LYS A   2      16.778  23.421  24.661  0.00  0.00    -0.273 OA
BRANCH   2   6
ATOM      6  CA  LYS A   2      18.329  21.677  25.204  0.00  0.00    +0.149 C 
BRANCH   6   9
ATOM      7  C   TYR A   1      17.022  19.633  25.078  0.00  0.00    +0.239 C 
ATOM      8  O   TYR A   1      17.395  19.255  26.173  0.00  0.00    -0.274 OA
ATOM      9  N   LYS A   2      17.451  20.753  24.508  0.00  0.00    -0.297 N 
ATOM     10  H   LYS A   2      17.150  20.974  23.537  0.00  0.00    +0.150 HD
BRANCH   7  11
ATOM     11  CA  TYR A   1      16.035  18.820  24.268  0.00  0.00    +0.149 C 
BRANCH  11  12
ATOM     12  N   TYR A   1      16.201  18.889  22.825  0.00  0.00    -0.238 NA
ATOM     13  H   TYR A   1      16.991  18.379  22.381  0.00  0.00    +0.142 HD
ENDBRANCH  11  12
BRANCH  11  14
ATOM     14  CB  TYR A   1      16.054  17.361  24.713  0.00  0.00    +0.053 C 
BRANCH  14  15
ATOM     15  CG  TYR A   1      15.144  16.517  23.860  0.00  0.00    -0.020 A 
ATOM     16  CD2 TYR A   1      13.766  16.618  23.985  0.00  0.00    -0.001 A 
ATOM     17  CE2 TYR A   1      12.915  15.898  23.174  0.00  0.00    +0.036 A 
ATOM     18  CZ  TYR A   1      13.437  15.047  22.212  0.00  0.00    +0.134 A 
ATOM     19  CE1 TYR A   1      14.813  14.925  22.058  0.00  0.00    +0.036 A 
ATOM     20  CD1 TYR A   1      15.659  15.662  22.885  0.00  0.00    -0.001 A 
BRANCH  18  21
ATOM     21  OH  TYR A   1      12.578  14.305  21.432  0.00  0.00    -0.506 OA
ATOM     22  HH  TYR A   1      11.984  14.914  20.926  0.00  0.00    +0.292 HD
ENDBRANCH  18  21
ENDBRANCH  14  15
ENDBRANCH  11  14
ENDBRANCH   7  11
ENDBRANCH   6   9
BRANCH   6  23
ATOM     23  CB  LYS A   2      19.457  22.182  24.298  0.00  0.00    +0.029 C 
BRANCH  23  24
ATOM     24  CG  LYS A   2      20.316  23.270  24.956  0.00  0.00    +0.000 C 
BRANCH  24  25
ATOM     25  CD  LYS A   2      21.371  23.817  23.996  0.00  0.00    -0.024 C 
BRANCH  25  26
ATOM     26  CE  LYS A   2      22.572  22.905  23.909  0.00  0.00    -0.086 C 
BRANCH  26  27
ATOM     27  NZ  LYS A   2      23.372  22.962  25.158  0.00  0.00    +0.380 N 
ATOM     28  HZ1 LYS A   2      22.782  22.663  25.960  0.00  0.00    -0.089 HD
ATOM     29  HZ2 LYS A   2      23.702  23.936  25.313  0.00  0.00    -0.089 HD
ATOM     30  HZ3 LYS A   2      24.191  22.327  25.073  0.00  0.00    -0.089 HD
ENDBRANCH  26  27
ENDBRANCH  25  26
ENDBRANCH  24  25
ENDBRANCH  23  24
ENDBRANCH   6  23
ENDBRANCH   2   6
ENDBRANCH   1   3
BRANCH   1  31
ATOM     31  C   TYR A   3      16.948  25.321  27.748  0.00  0.00    +0.241 C 
ATOM     32  O   TYR A   3      17.783  25.278  28.618  0.00  0.00    -0.273 OA
ATOM     33  N   ARG A   4      16.569  26.449  27.155  0.00  0.00    -0.297 N 
ATOM     34  H   ARG A   4      15.812  26.401  26.443  0.00  0.00    +0.150 HD
BRANCH  33  35
ATOM     35  CA  ARG A   4      17.154  27.741  27.448  0.00  0.00    +0.149 C 
BRANCH  35  36
ATOM     36  C   ARG A   4      16.111  28.684  28.040  0.00  0.00    +0.241 C 
ATOM     37  N   VAL A   5      16.554  29.825  28.556  0.00  0.00    -0.298 N 
ATOM     38  H   VAL A   5      17.569  30.050  28.539  0.00  0.00    +0.150 HD
ATOM     39  O   ARG A   4      14.905  28.392  28.024  0.00  0.00    -0.273 OA
BRANCH  37  40
ATOM     40  CA  VAL A   5      15.604  30.759  29.146  0.00  0.00    +0.137 C 
BRANCH  40  41
ATOM     41  CB  VAL A   5      16.301  32.071  29.655  0.00  0.00    +0.026 C 
ATOM     42  CG2 VAL A   5      17.103  31.802  30.933  0.00  0.00    +0.002 C 
ATOM     43  CG1 VAL A   5      15.255  33.145  29.902  0.00  0.00    +0.002 C 
ENDBRANCH  40  41
BRANCH  40  44
ATOM     44  C   VAL A   5      14.520  31.144  28.117  0.00  0.00    +0.227 C 
ATOM     45  O   VAL A   5      13.366  31.339  28.486  0.00  0.00    -0.286 OA
ENDBRANCH  40  44
ENDBRANCH  37  40
ENDBRANCH  35  36
BRANCH  35  46
ATOM     46  CB  ARG A   4      17.718  28.330  26.154  0.00  0.00    +0.033 C 
BRANCH  46  47
ATOM     47  CG  ARG A   4      18.774  27.473  25.462  0.00  0.00    +0.045 C 
BRANCH  47  48
ATOM     48  CD  ARG A   4      19.290  28.192  24.224  0.00  0.00    +0.174 C 
BRANCH  48  49
ATOM     49  NE  ARG A   4      20.381  27.510  23.517  0.00  0.00    -0.265 N 
ATOM     50  HE  ARG A   4      21.353  27.766  23.784  0.00  0.00    +0.259 HD
ATOM     51  CZ  ARG A   4      20.234  26.593  22.564  0.00  0.00    +0.342 C 
ATOM     52  NH2 ARG A   4      19.025  26.214  22.179  0.00  0.00    -0.292 N 
ATOM     53 HH21 ARG A   4      18.183  26.634  22.622  0.00  0.00    +0.255 HD
ATOM     54 HH22 ARG A   4      18.918  25.497  21.434  0.00  0.00    +0.255 HD
ATOM     55  NH1 ARG A   4      21.309  26.070  21.978  0.00  0.00    -0.292 N 
ATOM     56 HH11 ARG A   4      22.260  26.378  22.265  0.00  0.00    +0.255 HD
ATOM     57 HH12 ARG A   4      21.198  25.353  21.233  0.00  0.00    +0.255 HD
ENDBRANCH  48  49
ENDBRANCH  47  48
ENDBRANCH  46  47
ENDBRANCH  35  46
ENDBRANCH  33  35
ENDBRANCH   1  31
BRANCH   1  58
ATOM     58  CB  TYR A   3      15.331  23.519  28.361  0.00  0.00    +0.055 C 
BRANCH  58  59
ATOM     59  CG  TYR A   3      14.745  22.182  28.009  0.00  0.00    -0.020 A 
ATOM     60  CD2 TYR A   3      15.119  21.045  28.726  0.00  0.00    -0.001 A 
ATOM     61  CE2 TYR A   3      14.626  19.795  28.399  0.00  0.00    +0.036 A 
ATOM     62  CZ  TYR A   3      13.735  19.650  27.334  0.00  0.00    +0.134 A 
ATOM     63  CE1 TYR A   3      13.354  20.760  26.593  0.00  0.00    +0.036 A 
ATOM     64  CD1 TYR A   3      13.862  22.030  26.945  0.00  0.00    -0.001 A 
BRANCH  62  65
ATOM     65  OH  TYR A   3      13.196  18.394  27.093  0.00  0.00    -0.506 OA
ATOM     66  HH  TYR A   3      12.215  18.426  27.224  0.00  0.00    +0.292 HD
ENDBRANCH  62  65
ENDBRANCH  58  59
ENDBRANCH   1  58
TORSDOF 26
REMARK  Name = ../refined-set-2016/1ie9/1ie9_pocket.pdb
REMARK  287 active torsions:
REMARK  status: ('A' for Active; 'I' for Inactive)
REMARK    1  A    between atoms: _1  and  _3
REMARK    2  A    between atoms: _3  and  _4
REMARK    3  A    between atoms: _3  and  _6
REMARK    4  A    between atoms: _6  and  _7
REMARK    5  A    between atoms: _10  and  _12
REMARK    6  A    between atoms: _12  and  _13
REMARK    7  A    between atoms: _12  and  _15
REMARK    8  A    between atoms: _15  and  _16
REMARK    9  A    between atoms: _21  and  _22
REMARK   10  A    between atoms: _24  and  _26
REMARK   11  A    between atoms: _26  and  _27
REMARK   12  A    between atoms: _26  and  _29
REMARK   13  A    between atoms: _29  and  _30
REMARK   14  A    between atoms: _34  and  _35
REMARK   15  A    between atoms: _40  and  _42
REMARK   16  A    between atoms: _42  and  _43
REMARK   17  A    between atoms: _42  and  _45
REMARK   18  A    between atoms: _45  and  _46
REMARK   19  A    between atoms: _51  and  _52
REMARK   20  A    between atoms: _54  and  _56
REMARK   21  A    between atoms: _56  and  _57
REMARK   22  A    between atoms: _56  and  _59
REMARK   23  A    between atoms: _59  and  _60
REMARK   24  A    between atoms: _66  and  _68
REMARK   25  A    between atoms: _68  and  _69
REMARK   26  A    between atoms: _68  and  _71
REMARK   27  A    between atoms: _71  and  _72
REMARK   28  A    between atoms: _78  and  _80
REMARK   29  A    between atoms: _80  and  _81
REMARK   30  A    between atoms: _80  and  _83
REMARK   31  A    between atoms: _83  and  _84
REMARK   32  A    between atoms: _84  and  _85
REMARK   33  A    between atoms: _85  and  _86
REMARK   34  A    between atoms: _95  and  _97
REMARK   35  A    between atoms: _97  and  _98
REMARK   36  A    between atoms: _97  and  _100
REMARK   37  A    between atoms: _100  and  _101
REMARK   38  A    between atoms: _104  and  _106
REMARK   39  A    between atoms: _106  and  _107
REMARK   40  A    between atoms: _106  and  _109
REMARK   41  A    between atoms: _109  and  _110
REMARK   42  A    between atoms: _110  and  _111
REMARK   43  A    between atoms: _113  and  _115
REMARK   44  A    between atoms: _115  and  _116
REMARK   45  A    between atoms: _115  and  _118
REMARK   46  A    between atoms: _118  and  _119
REMARK   47  A    between atoms: _123  and  _124
REMARK   48  A    between atoms: _129  and  _131
REMARK   49  A    between atoms: _131  and  _132
REMARK   50  A    between atoms: _131  and  _134
REMARK   51  A    between atoms: _134  and  _135
REMARK   52  A    between atoms: _140  and  _142
REMARK   53  A    between atoms: _142  and  _143
REMARK   54  A    between atoms: _142  and  _145
REMARK   55  A    between atoms: _145  and  _146
REMARK   56  A    between atoms: _149  and  _151
REMARK   57  A    between atoms: _151  and  _152
REMARK   58  A    between atoms: _155  and  _157
REMARK   59  A    between atoms: _157  and  _158
REMARK   60  A    between atoms: _157  and  _160
REMARK   61  A    between atoms: _160  and  _161
REMARK   62  A    between atoms: _164  and  _166
REMARK   63  A    between atoms: _166  and  _167
REMARK   64  A    between atoms: _166  and  _169
REMARK   65  A    between atoms: _169  and  _170
REMARK   66  A    between atoms: _173  and  _175
REMARK   67  A    between atoms: _175  and  _176
REMARK   68  A    between atoms: _175  and  _178
REMARK   69  A    between atoms: _181  and  _183
REMARK   70  A    between atoms: _183  and  _184
REMARK   71  A    between atoms: _183  and  _186
REMARK   72  A    between atoms: _186  and  _187
REMARK   73  A    between atoms: _189  and  _191
REMARK   74  A    between atoms: _191  and  _192
REMARK   75  A    between atoms: _191  and  _194
REMARK   76  A    between atoms: _194  and  _195
REMARK   77  A    between atoms: _200  and  _201
REMARK   78  A    between atoms: _203  and  _205
REMARK   79  A    between atoms: _205  and  _206
REMARK   80  A    between atoms: _205  and  _208
REMARK   81  A    between atoms: _208  and  _209
REMARK   82  A    between atoms: _211  and  _213
REMARK   83  A    between atoms: _213  and  _214
REMARK   84  A    between atoms: _213  and  _216
REMARK   85  A    between atoms: _216  and  _217
REMARK   86  A    between atoms: _220  and  _222
REMARK   87  A    between atoms: _222  and  _223
REMARK   88  A    between atoms: _222  and  _225
REMARK   89  A    between atoms: _225  and  _226
REMARK   90  A    between atoms: _226  and  _227
REMARK   91  A    between atoms: _227  and  _228
REMARK   92  A    between atoms: _228  and  _229
REMARK   93  A    between atoms: _233  and  _235
REMARK   94  A    between atoms: _235  and  _236
REMARK   95  A    between atoms: _235  and  _238
REMARK   96  A    between atoms: _241  and  _243
REMARK   97  A    between atoms: _243  and  _244
REMARK   98  A    between atoms: _247  and  _249
REMARK   99  A    between atoms: _249  and  _250
REMARK  100  A    between atoms: _249  and  _252
REMARK  101  A    between atoms: _252  and  _253
REMARK  102  A    between atoms: _256  and  _258
REMARK  103  A    between atoms: _258  and  _259
REMARK  104  A    between atoms: _258  and  _261
REMARK  105  A    between atoms: _261  and  _262
REMARK  106  A    between atoms: _262  and  _263
REMARK  107  A    between atoms: _266  and  _268
REMARK  108  A    between atoms: _268  and  _269
REMARK  109  A    between atoms: _268  and  _271
REMARK  110  A    between atoms: _274  and  _276
REMARK  111  A    between atoms: _276  and  _277
REMARK  112  A    between atoms: _276  and  _279
REMARK  113  A    between atoms: _279  and  _280
REMARK  114  A    between atoms: _283  and  _285
REMARK  115  A    between atoms: _285  and  _286
REMARK  116  A    between atoms: _285  and  _288
REMARK  117  A    between atoms: _288  and  _289
REMARK  118  A    between atoms: _289  and  _290
REMARK  119  A    between atoms: _292  and  _294
REMARK  120  A    between atoms: _294  and  _295
REMARK  121  A    between atoms: _294  and  _297
REMARK  122  A    between atoms: _297  and  _298
REMARK  123  A    between atoms: _301  and  _303
REMARK  124  A    between atoms: _303  and  _304
REMARK  125  A    between atoms: _303  and  _306
REMARK  126  A    between atoms: _306  and  _307
REMARK  127  A    between atoms: _307  and  _308
REMARK  128  A    between atoms: _308  and  _309
REMARK  129  A    between atoms: _318  and  _320
REMARK  130  A    between atoms: _320  and  _321
REMARK  131  A    between atoms: _320  and  _323
REMARK  132  A    between atoms: _323  and  _324
REMARK  133  A    between atoms: _326  and  _328
REMARK  134  A    between atoms: _328  and  _329
REMARK  135  A    between atoms: _328  and  _331
REMARK  136  A    between atoms: _331  and  _332
REMARK  137  A    between atoms: _337  and  _339
REMARK  138  A    between atoms: _339  and  _340
REMARK  139  A    between atoms: _339  and  _342
REMARK  140  A    between atoms: _342  and  _343
REMARK  141  A    between atoms: _343  and  _344
REMARK  142  A    between atoms: _347  and  _349
REMARK  143  A    between atoms: _349  and  _350
REMARK  144  A    between atoms: _349  and  _352
REMARK  145  A    between atoms: _352  and  _353
REMARK  146  A    between atoms: _355  and  _357
REMARK  147  A    between atoms: _357  and  _358
REMARK  148  A    between atoms: _357  and  _360
REMARK  149  A    between atoms: _360  and  _361
REMARK  150  A    between atoms: _367  and  _369
REMARK  151  A    between atoms: _369  and  _370
REMARK  152  A    between atoms: _369  and  _372
REMARK  153  A    between atoms: _372  and  _373
REMARK  154  A    between atoms: _375  and  _377
REMARK  155  A    between atoms: _377  and  _378
REMARK  156  A    between atoms: _377  and  _380
REMARK  157  A    between atoms: _380  and  _381
REMARK  158  A    between atoms: _391  and  _393
REMARK  159  A    between atoms: _393  and  _394
REMARK  160  A    between atoms: _393  and  _396
REMARK  161  A    between atoms: _396  and  _397
REMARK  162  A    between atoms: _400  and  _402
REMARK  163  A    between atoms: _402  and  _403
REMARK  164  A    between atoms: _402  and  _405
REMARK  165  A    between atoms: _407  and  _409
REMARK  166  A    between atoms: _409  and  _410
REMARK  167  A    between atoms: _409  and  _412
REMARK  168  A    between atoms: _412  and  _413
REMARK  169  A    between atoms: _418  and  _419
REMARK  170  A    between atoms: _421  and  _423
REMARK  171  A    between atoms: _423  and  _424
REMARK  172  A    between atoms: _423  and  _426
REMARK  173  A    between atoms: _426  and  _427
REMARK  174  A    between atoms: _427  and  _428
REMARK  175  A    between atoms: _428  and  _429
REMARK  176  A    between atoms: _429  and  _430
REMARK  177  A    between atoms: _434  and  _436
REMARK  178  A    between atoms: _436  and  _437
REMARK  179  A    between atoms: _436  and  _439
REMARK  180  A    between atoms: _439  and  _440
REMARK  181  A    between atoms: _445  and  _446
REMARK  182  A    between atoms: _448  and  _450
REMARK  183  A    between atoms: _450  and  _451
REMARK  184  A    between atoms: _450  and  _453
REMARK  185  A    between atoms: _453  and  _454
REMARK  186  A    between atoms: _454  and  _455
REMARK  187  A    between atoms: _455  and  _456
REMARK  188  A    between atoms: _465  and  _467
REMARK  189  A    between atoms: _467  and  _468
REMARK  190  A    between atoms: _467  and  _470
REMARK  191  A    between atoms: _473  and  _475
REMARK  192  A    between atoms: _475  and  _476
REMARK  193  A    between atoms: _475  and  _478
REMARK  194  A    between atoms: _478  and  _479
REMARK  195  A    between atoms: _482  and  _484
REMARK  196  A    between atoms: _484  and  _485
REMARK  197  A    between atoms: _484  and  _487
REMARK  198  A    between atoms: _490  and  _492
REMARK  199  A    between atoms: _492  and  _493
REMARK  200  A    between atoms: _492  and  _495
REMARK  201  A    between atoms: _495  and  _496
REMARK  202  A    between atoms: _499  and  _501
REMARK  203  A    between atoms: _501  and  _502
REMARK  204  A    between atoms: _505  and  _507
REMARK  205  A    between atoms: _507  and  _508
REMARK  206  A    between atoms: _510  and  _512
REMARK  207  A    between atoms: _512  and  _513
REMARK  208  A    between atoms: _512  and  _515
REMARK  209  A    between atoms: _515  and  _516
REMARK  210  A    between atoms: _521  and  _523
REMARK  211  A    between atoms: _523  and  _524
REMARK  212  A    between atoms: _523  and  _526
REMARK  213  A    between atoms: _526  and  _527
REMARK  214  A    between atoms: _530  and  _532
REMARK  215  A    between atoms: _532  and  _533
REMARK  216  A    between atoms: _532  and  _535
REMARK  217  A    between atoms: _535  and  _536
REMARK  218  A    between atoms: _539  and  _541
REMARK  219  A    between atoms: _541  and  _542
REMARK  220  A    between atoms: _541  and  _544
REMARK  221  A    between atoms: _544  and  _545
REMARK  222  A    between atoms: _548  and  _550
REMARK  223  A    between atoms: _550  and  _551
REMARK  224  A    between atoms: _550  and  _553
REMARK  225  A    between atoms: _553  and  _554
REMARK  226  A    between atoms: _554  and  _555
REMARK  227  A    between atoms: _560  and  _562
REMARK  228  A    between atoms: _562  and  _563
REMARK  229  A    between atoms: _562  and  _565
REMARK  230  A    between atoms: _565  and  _566
REMARK  231  A    between atoms: _569  and  _571
REMARK  232  A    between atoms: _571  and  _572
REMARK  233  A    between atoms: _571  and  _574
REMARK  234  A    between atoms: _574  and  _575
REMARK  235  A    between atoms: _580  and  _582
REMARK  236  A    between atoms: _582  and  _583
REMARK  237  A    between atoms: _582  and  _585
REMARK  238  A    between atoms: _585  and  _586
REMARK  239  A    between atoms: _588  and  _590
REMARK  240  A    between atoms: _590  and  _591
REMARK  241  A    between atoms: _590  and  _593
REMARK  242  A    between atoms: _593  and  _594
REMARK  243  A    between atoms: _594  and  _595
REMARK  244  A    between atoms: _600  and  _602
REMARK  245  A    between atoms: _602  and  _603
REMARK  246  A    between atoms: _602  and  _605
REMARK  247  A    between atoms: _605  and  _606
REMARK  248  A    between atoms: _611  and  _612
REMARK  249  A    between atoms: _614  and  _616
REMARK  250  A    between atoms: _616  and  _617
REMARK  251  A    between atoms: _616  and  _619
REMARK  252  A    between atoms: _619  and  _620
REMARK  253  A    between atoms: _620  and  _621
REMARK  254  A    between atoms: _621  and  _622
REMARK  255  A    between atoms: _631  and  _633
REMARK  256  A    between atoms: _633  and  _634
REMARK  257  A    between atoms: _633  and  _636
REMARK  258  A    between atoms: _636  and  _637
REMARK  259  A    between atoms: _640  and  _642
REMARK  260  A    between atoms: _642  and  _643
REMARK  261  A    between atoms: _642  and  _645
REMARK  262  A    between atoms: _647  and  _649
REMARK  263  A    between atoms: _649  and  _650
REMARK  264  A    between atoms: _649  and  _652
REMARK  265  A    between atoms: _652  and  _653
REMARK  266  A    between atoms: _653  and  _654
REMARK  267  A    between atoms: _654  and  _655
REMARK  268  A    between atoms: _655  and  _656
REMARK  269  A    between atoms: _660  and  _662
REMARK  270  A    between atoms: _662  and  _663
REMARK  271  A    between atoms: _662  and  _665
REMARK  272  A    between atoms: _665  and  _666
REMARK  273  A    between atoms: _669  and  _671
REMARK  274  A    between atoms: _671  and  _672
REMARK  275  A    between atoms: _671  and  _674
REMARK  276  A    between atoms: _674  and  _675
REMARK  277  A    between atoms: _678  and  _680
REMARK  278  A    between atoms: _680  and  _681
REMARK  279  A    between atoms: _680  and  _683
REMARK  280  A    between atoms: _686  and  _688
REMARK  281  A    between atoms: _688  and  _689
REMARK  282  A    between atoms: _688  and  _691
REMARK  283  A    between atoms: _691  and  _692
REMARK  284  A    between atoms: _695  and  _697
REMARK  285  A    between atoms: _697  and  _698
REMARK  286  A    between atoms: _697  and  _700
REMARK  287  A    between atoms: _700  and  _701
REMARK                            x       y       z     vdW  Elec       q    Type
REMARK                         _______ _______ _______ _____ _____    ______ ____
ROOT
ATOM      1  CA  VAL A   2      10.629  29.194  29.379  0.00  0.00    +0.148 C 
ENDROOT
BRANCH   1   3
ATOM      2  C   ASP A   1      11.047  28.498  27.105  0.00  0.00    +0.239 C 
ATOM      3  N   VAL A   2      11.508  28.977  28.251  0.00  0.00    -0.297 N 
ATOM      4  H   VAL A   2      12.520  29.201  28.341  0.00  0.00    +0.150 HD
ATOM      5  O   ASP A   1       9.868  28.209  26.930  0.00  0.00    -0.274 OA
BRANCH   2   6
ATOM      6  CA  ASP A   1      12.070  28.318  26.001  0.00  0.00    +0.156 C 
BRANCH   6   7
ATOM      7  N   ASP A   1      13.119  29.337  26.088  0.00  0.00    -0.238 NA
ATOM      8  H   ASP A   1      14.051  29.098  26.483  0.00  0.00    +0.142 HD
ENDBRANCH   6   7
BRANCH   6   9
ATOM      9  CB  ASP A   1      12.663  26.903  26.071  0.00  0.00    +0.140 C 
BRANCH   9  10
ATOM     10  CG  ASP A   1      13.490  26.566  24.847  0.00  0.00    +0.367 C 
ATOM     11  OD2 ASP A   1      14.600  26.009  24.994  0.00  0.00    -0.246 OA
ATOM     12  OD1 ASP A   1      13.032  26.860  23.717  0.00  0.00    -0.246 OA
ENDBRANCH   9  10
ENDBRANCH   6   9
ENDBRANCH   2   6
ENDBRANCH   1   3
BRANCH   1  13
ATOM     13  C   VAL A   2       9.724  30.367  29.050  0.00  0.00    +0.241 C 
ATOM     14  O   VAL A   2       8.542  30.357  29.410  0.00  0.00    -0.273 OA
ATOM     15  N   THR A   3      10.240  31.375  28.350  0.00  0.00    -0.296 N 
ATOM     16  H   THR A   3      11.236  31.379  28.049  0.00  0.00    +0.150 HD
BRANCH  15  17
ATOM     17  CA  THR A   3       9.335  32.477  28.026  0.00  0.00    +0.164 C 
BRANCH  17  18
ATOM     18  CB  THR A   3      10.067  33.714  27.490  0.00  0.00    +0.136 C 
ATOM     19  CG2 THR A   3      11.001  34.277  28.540  0.00  0.00    +0.034 C 
BRANCH  18  20
ATOM     20  OG1 THR A   3      10.815  33.363  26.337  0.00  0.00    -0.382 OA
ATOM     21  HG1 THR A   3      11.477  32.666  26.574  0.00  0.00    +0.210 HD
ENDBRANCH  18  20
ENDBRANCH  17  18
BRANCH  17  22
ATOM     22  C   THR A   3       8.319  31.982  26.988  0.00  0.00    +0.229 C 
ATOM     23  O   THR A   3       7.189  32.457  26.971  0.00  0.00    -0.286 OA
ENDBRANCH  17  22
ENDBRANCH  15  17
ENDBRANCH   1  13
BRANCH   1  24
ATOM     24  CB  VAL A   2      11.444  29.439  30.686  0.00  0.00    +0.027 C 
ATOM     25  CG2 VAL A   2      10.507  29.649  31.889  0.00  0.00    +0.002 C 
ATOM     26  CG1 VAL A   2      12.366  28.231  30.925  0.00  0.00    +0.002 C 
ENDBRANCH   1  24
TORSDOF 11
REMARK  Name = ../refined-set-2016/1ie9/1ie9_pocket.pdb
REMARK  287 active torsions:
REMARK  status: ('A' for Active; 'I' for Inactive)
REMARK    1  A    between atoms: _1  and  _3
REMARK    2  A    between atoms: _3  and  _4
REMARK    3  A    between atoms: _3  and  _6
REMARK    4  A    between atoms: _6  and  _7
REMARK    5  A    between atoms: _10  and  _12
REMARK    6  A    between atoms: _12  and  _13
REMARK    7  A    between atoms: _12  and  _15
REMARK    8  A    between atoms: _15  and  _16
REMARK    9  A    between atoms: _21  and  _22
REMARK   10  A    between atoms: _24  and  _26
REMARK   11  A    between atoms: _26  and  _27
REMARK   12  A    between atoms: _26  and  _29
REMARK   13  A    between atoms: _29  and  _30
REMARK   14  A    between atoms: _34  and  _35
REMARK   15  A    between atoms: _40  and  _42
REMARK   16  A    between atoms: _42  and  _43
REMARK   17  A    between atoms: _42  and  _45
REMARK   18  A    between atoms: _45  and  _46
REMARK   19  A    between atoms: _51  and  _52
REMARK   20  A    between atoms: _54  and  _56
REMARK   21  A    between atoms: _56  and  _57
REMARK   22  A    between atoms: _56  and  _59
REMARK   23  A    between atoms: _59  and  _60
REMARK   24  A    between atoms: _66  and  _68
REMARK   25  A    between atoms: _68  and  _69
REMARK   26  A    between atoms: _68  and  _71
REMARK   27  A    between atoms: _71  and  _72
REMARK   28  A    between atoms: _78  and  _80
REMARK   29  A    between atoms: _80  and  _81
REMARK   30  A    between atoms: _80  and  _83
REMARK   31  A    between atoms: _83  and  _84
REMARK   32  A    between atoms: _84  and  _85
REMARK   33  A    between atoms: _85  and  _86
REMARK   34  A    between atoms: _95  and  _97
REMARK   35  A    between atoms: _97  and  _98
REMARK   36  A    between atoms: _97  and  _100
REMARK   37  A    between atoms: _100  and  _101
REMARK   38  A    between atoms: _104  and  _106
REMARK   39  A    between atoms: _106  and  _107
REMARK   40  A    between atoms: _106  and  _109
REMARK   41  A    between atoms: _109  and  _110
REMARK   42  A    between atoms: _110  and  _111
REMARK   43  A    between atoms: _113  and  _115
REMARK   44  A    between atoms: _115  and  _116
REMARK   45  A    between atoms: _115  and  _118
REMARK   46  A    between atoms: _118  and  _119
REMARK   47  A    between atoms: _123  and  _124
REMARK   48  A    between atoms: _129  and  _131
REMARK   49  A    between atoms: _131  and  _132
REMARK   50  A    between atoms: _131  and  _134
REMARK   51  A    between atoms: _134  and  _135
REMARK   52  A    between atoms: _140  and  _142
REMARK   53  A    between atoms: _142  and  _143
REMARK   54  A    between atoms: _142  and  _145
REMARK   55  A    between atoms: _145  and  _146
REMARK   56  A    between atoms: _149  and  _151
REMARK   57  A    between atoms: _151  and  _152
REMARK   58  A    between atoms: _155  and  _157
REMARK   59  A    between atoms: _157  and  _158
REMARK   60  A    between atoms: _157  and  _160
REMARK   61  A    between atoms: _160  and  _161
REMARK   62  A    between atoms: _164  and  _166
REMARK   63  A    between atoms: _166  and  _167
REMARK   64  A    between atoms: _166  and  _169
REMARK   65  A    between atoms: _169  and  _170
REMARK   66  A    between atoms: _173  and  _175
REMARK   67  A    between atoms: _175  and  _176
REMARK   68  A    between atoms: _175  and  _178
REMARK   69  A    between atoms: _181  and  _183
REMARK   70  A    between atoms: _183  and  _184
REMARK   71  A    between atoms: _183  and  _186
REMARK   72  A    between atoms: _186  and  _187
REMARK   73  A    between atoms: _189  and  _191
REMARK   74  A    between atoms: _191  and  _192
REMARK   75  A    between atoms: _191  and  _194
REMARK   76  A    between atoms: _194  and  _195
REMARK   77  A    between atoms: _200  and  _201
REMARK   78  A    between atoms: _203  and  _205
REMARK   79  A    between atoms: _205  and  _206
REMARK   80  A    between atoms: _205  and  _208
REMARK   81  A    between atoms: _208  and  _209
REMARK   82  A    between atoms: _211  and  _213
REMARK   83  A    between atoms: _213  and  _214
REMARK   84  A    between atoms: _213  and  _216
REMARK   85  A    between atoms: _216  and  _217
REMARK   86  A    between atoms: _220  and  _222
REMARK   87  A    between atoms: _222  and  _223
REMARK   88  A    between atoms: _222  and  _225
REMARK   89  A    between atoms: _225  and  _226
REMARK   90  A    between atoms: _226  and  _227
REMARK   91  A    between atoms: _227  and  _228
REMARK   92  A    between atoms: _228  and  _229
REMARK   93  A    between atoms: _233  and  _235
REMARK   94  A    between atoms: _235  and  _236
REMARK   95  A    between atoms: _235  and  _238
REMARK   96  A    between atoms: _241  and  _243
REMARK   97  A    between atoms: _243  and  _244
REMARK   98  A    between atoms: _247  and  _249
REMARK   99  A    between atoms: _249  and  _250
REMARK  100  A    between atoms: _249  and  _252
REMARK  101  A    between atoms: _252  and  _253
REMARK  102  A    between atoms: _256  and  _258
REMARK  103  A    between atoms: _258  and  _259
REMARK  104  A    between atoms: _258  and  _261
REMARK  105  A    between atoms: _261  and  _262
REMARK  106  A    between atoms: _262  and  _263
REMARK  107  A    between atoms: _266  and  _268
REMARK  108  A    between atoms: _268  and  _269
REMARK  109  A    between atoms: _268  and  _271
REMARK  110  A    between atoms: _274  and  _276
REMARK  111  A    between atoms: _276  and  _277
REMARK  112  A    between atoms: _276  and  _279
REMARK  113  A    between atoms: _279  and  _280
REMARK  114  A    between atoms: _283  and  _285
REMARK  115  A    between atoms: _285  and  _286
REMARK  116  A    between atoms: _285  and  _288
REMARK  117  A    between atoms: _288  and  _289
REMARK  118  A    between atoms: _289  and  _290
REMARK  119  A    between atoms: _292  and  _294
REMARK  120  A    between atoms: _294  and  _295
REMARK  121  A    between atoms: _294  and  _297
REMARK  122  A    between atoms: _297  and  _298
REMARK  123  A    between atoms: _301  and  _303
REMARK  124  A    between atoms: _303  and  _304
REMARK  125  A    between atoms: _303  and  _306
REMARK  126  A    between atoms: _306  and  _307
REMARK  127  A    between atoms: _307  and  _308
REMARK  128  A    between atoms: _308  and  _309
REMARK  129  A    between atoms: _318  and  _320
REMARK  130  A    between atoms: _320  and  _321
REMARK  131  A    between atoms: _320  and  _323
REMARK  132  A    between atoms: _323  and  _324
REMARK  133  A    between atoms: _326  and  _328
REMARK  134  A    between atoms: _328  and  _329
REMARK  135  A    between atoms: _328  and  _331
REMARK  136  A    between atoms: _331  and  _332
REMARK  137  A    between atoms: _337  and  _339
REMARK  138  A    between atoms: _339  and  _340
REMARK  139  A    between atoms: _339  and  _342
REMARK  140  A    between atoms: _342  and  _343
REMARK  141  A    between atoms: _343  and  _344
REMARK  142  A    between atoms: _347  and  _349
REMARK  143  A    between atoms: _349  and  _350
REMARK  144  A    between atoms: _349  and  _352
REMARK  145  A    between atoms: _352  and  _353
REMARK  146  A    between atoms: _355  and  _357
REMARK  147  A    between atoms: _357  and  _358
REMARK  148  A    between atoms: _357  and  _360
REMARK  149  A    between atoms: _360  and  _361
REMARK  150  A    between atoms: _367  and  _369
REMARK  151  A    between atoms: _369  and  _370
REMARK  152  A    between atoms: _369  and  _372
REMARK  153  A    between atoms: _372  and  _373
REMARK  154  A    between atoms: _375  and  _377
REMARK  155  A    between atoms: _377  and  _378
REMARK  156  A    between atoms: _377  and  _380
REMARK  157  A    between atoms: _380  and  _381
REMARK  158  A    between atoms: _391  and  _393
REMARK  159  A    between atoms: _393  and  _394
REMARK  160  A    between atoms: _393  and  _396
REMARK  161  A    between atoms: _396  and  _397
REMARK  162  A    between atoms: _400  and  _402
REMARK  163  A    between atoms: _402  and  _403
REMARK  164  A    between atoms: _402  and  _405
REMARK  165  A    between atoms: _407  and  _409
REMARK  166  A    between atoms: _409  and  _410
REMARK  167  A    between atoms: _409  and  _412
REMARK  168  A    between atoms: _412  and  _413
REMARK  169  A    between atoms: _418  and  _419
REMARK  170  A    between atoms: _421  and  _423
REMARK  171  A    between atoms: _423  and  _424
REMARK  172  A    between atoms: _423  and  _426
REMARK  173  A    between atoms: _426  and  _427
REMARK  174  A    between atoms: _427  and  _428
REMARK  175  A    between atoms: _428  and  _429
REMARK  176  A    between atoms: _429  and  _430
REMARK  177  A    between atoms: _434  and  _436
REMARK  178  A    between atoms: _436  and  _437
REMARK  179  A    between atoms: _436  and  _439
REMARK  180  A    between atoms: _439  and  _440
REMARK  181  A    between atoms: _445  and  _446
REMARK  182  A    between atoms: _448  and  _450
REMARK  183  A    between atoms: _450  and  _451
REMARK  184  A    between atoms: _450  and  _453
REMARK  185  A    between atoms: _453  and  _454
REMARK  186  A    between atoms: _454  and  _455
REMARK  187  A    between atoms: _455  and  _456
REMARK  188  A    between atoms: _465  and  _467
REMARK  189  A    between atoms: _467  and  _468
REMARK  190  A    between atoms: _467  and  _470
REMARK  191  A    between atoms: _473  and  _475
REMARK  192  A    between atoms: _475  and  _476
REMARK  193  A    between atoms: _475  and  _478
REMARK  194  A    between atoms: _478  and  _479
REMARK  195  A    between atoms: _482  and  _484
REMARK  196  A    between atoms: _484  and  _485
REMARK  197  A    between atoms: _484  and  _487
REMARK  198  A    between atoms: _490  and  _492
REMARK  199  A    between atoms: _492  and  _493
REMARK  200  A    between atoms: _492  and  _495
REMARK  201  A    between atoms: _495  and  _496
REMARK  202  A    between atoms: _499  and  _501
REMARK  203  A    between atoms: _501  and  _502
REMARK  204  A    between atoms: _505  and  _507
REMARK  205  A    between atoms: _507  and  _508
REMARK  206  A    between atoms: _510  and  _512
REMARK  207  A    between atoms: _512  and  _513
REMARK  208  A    between atoms: _512  and  _515
REMARK  209  A    between atoms: _515  and  _516
REMARK  210  A    between atoms: _521  and  _523
REMARK  211  A    between atoms: _523  and  _524
REMARK  212  A    between atoms: _523  and  _526
REMARK  213  A    between atoms: _526  and  _527
REMARK  214  A    between atoms: _530  and  _532
REMARK  215  A    between atoms: _532  and  _533
REMARK  216  A    between atoms: _532  and  _535
REMARK  217  A    between atoms: _535  and  _536
REMARK  218  A    between atoms: _539  and  _541
REMARK  219  A    between atoms: _541  and  _542
REMARK  220  A    between atoms: _541  and  _544
REMARK  221  A    between atoms: _544  and  _545
REMARK  222  A    between atoms: _548  and  _550
REMARK  223  A    between atoms: _550  and  _551
REMARK  224  A    between atoms: _550  and  _553
REMARK  225  A    between atoms: _553  and  _554
REMARK  226  A    between atoms: _554  and  _555
REMARK  227  A    between atoms: _560  and  _562
REMARK  228  A    between atoms: _562  and  _563
REMARK  229  A    between atoms: _562  and  _565
REMARK  230  A    between atoms: _565  and  _566
REMARK  231  A    between atoms: _569  and  _571
REMARK  232  A    between atoms: _571  and  _572
REMARK  233  A    between atoms: _571  and  _574
REMARK  234  A    between atoms: _574  and  _575
REMARK  235  A    between atoms: _580  and  _582
REMARK  236  A    between atoms: _582  and  _583
REMARK  237  A    between atoms: _582  and  _585
REMARK  238  A    between atoms: _585  and  _586
REMARK  239  A    between atoms: _588  and  _590
REMARK  240  A    between atoms: _590  and  _591
REMARK  241  A    between atoms: _590  and  _593
REMARK  242  A    between atoms: _593  and  _594
REMARK  243  A    between atoms: _594  and  _595
REMARK  244  A    between atoms: _600  and  _602
REMARK  245  A    between atoms: _602  and  _603
REMARK  246  A    between atoms: _602  and  _605
REMARK  247  A    between atoms: _605  and  _606
REMARK  248  A    between atoms: _611  and  _612
REMARK  249  A    between atoms: _614  and  _616
REMARK  250  A    between atoms: _616  and  _617
REMARK  251  A    between atoms: _616  and  _619
REMARK  252  A    between atoms: _619  and  _620
REMARK  253  A    between atoms: _620  and  _621
REMARK  254  A    between atoms: _621  and  _622
REMARK  255  A    between atoms: _631  and  _633
REMARK  256  A    between atoms: _633  and  _634
REMARK  257  A    between atoms: _633  and  _636
REMARK  258  A    between atoms: _636  and  _637
REMARK  259  A    between atoms: _640  and  _642
REMARK  260  A    between atoms: _642  and  _643
REMARK  261  A    between atoms: _642  and  _645
REMARK  262  A    between atoms: _647  and  _649
REMARK  263  A    between atoms: _649  and  _650
REMARK  264  A    between atoms: _649  and  _652
REMARK  265  A    between atoms: _652  and  _653
REMARK  266  A    between atoms: _653  and  _654
REMARK  267  A    between atoms: _654  and  _655
REMARK  268  A    between atoms: _655  and  _656
REMARK  269  A    between atoms: _660  and  _662
REMARK  270  A    between atoms: _662  and  _663
REMARK  271  A    between atoms: _662  and  _665
REMARK  272  A    between atoms: _665  and  _666
REMARK  273  A    between atoms: _669  and  _671
REMARK  274  A    between atoms: _671  and  _672
REMARK  275  A    between atoms: _671  and  _674
REMARK  276  A    between atoms: _674  and  _675
REMARK  277  A    between atoms: _678  and  _680
REMARK  278  A    between atoms: _680  and  _681
REMARK  279  A    between atoms: _680  and  _683
REMARK  280  A    between atoms: _686  and  _688
REMARK  281  A    between atoms: _688  and  _689
REMARK  282  A    between atoms: _688  and  _691
REMARK  283  A    between atoms: _691  and  _692
REMARK  284  A    between atoms: _695  and  _697
REMARK  285  A    between atoms: _697  and  _698
REMARK  286  A    between atoms: _697  and  _700
REMARK  287  A    between atoms: _700  and  _701
REMARK                            x       y       z     vdW  Elec       q    Type
REMARK                         _______ _______ _______ _____ _____    ______ ____
ROOT
ATOM      1  C   GLY A   2       4.847  32.361  30.472  0.00  0.00    +0.243 C 
ATOM      2  O   GLY A   2       4.106  33.116  31.120  0.00  0.00    -0.273 OA
ATOM      3  N   HIS A   3       6.093  32.074  30.848  0.00  0.00    -0.298 N 
ATOM      4  H   HIS A   3       6.666  31.426  30.271  0.00  0.00    +0.150 HD
ENDROOT
BRANCH   1   5
ATOM      5  CA  GLY A   2       4.311  31.728  29.192  0.00  0.00    +0.176 C 
BRANCH   5   8
ATOM      6  C   ALA A   1       4.993  29.464  28.653  0.00  0.00    +0.238 C 
ATOM      7  O   ALA A   1       4.225  28.998  29.485  0.00  0.00    -0.274 OA
ATOM      8  N   GLY A   2       5.135  30.778  28.464  0.00  0.00    -0.296 N 
ATOM      9  H   GLY A   2       5.844  31.126  27.787  0.00  0.00    +0.150 HD
BRANCH   6  10
ATOM     10  CA  ALA A   1       5.874  28.539  27.806  0.00  0.00    +0.145 C 
ATOM     11  CB  ALA A   1       6.556  27.497  28.697  0.00  0.00    +0.028 C 
BRANCH  10  12
ATOM     12  N   ALA A   1       6.856  29.335  27.091  0.00  0.00    -0.238 NA
ATOM     13  H   ALA A   1       7.663  29.736  27.611  0.00  0.00    +0.142 HD
ENDBRANCH  10  12
ENDBRANCH   6  10
ENDBRANCH   5   8
ENDBRANCH   1   5
BRANCH   3  14
ATOM     14  CA  HIS A   3       6.662  32.654  32.054  0.00  0.00    +0.143 C 
BRANCH  14  15
ATOM     15  C   HIS A   3       7.494  33.891  31.734  0.00  0.00    +0.227 C 
ATOM     16  O   HIS A   3       7.878  34.125  30.582  0.00  0.00    -0.286 OA
ENDBRANCH  14  15
BRANCH  14  17
ATOM     17  CB  HIS A   3       7.496  31.604  32.783  0.00  0.00    +0.075 C 
BRANCH  17  18
ATOM     18  CG  HIS A   3       6.667  30.574  33.474  0.00  0.00    +0.082 A 
ATOM     19  ND1 HIS A   3       5.914  30.863  34.589  0.00  0.00    -0.227 NA
ATOM     20  CE1 HIS A   3       5.244  29.784  34.952  0.00  0.00    +0.199 A 
ATOM     21  NE2 HIS A   3       5.537  28.809  34.110  0.00  0.00    -0.221 NA
ATOM     22  CD2 HIS A   3       6.427  29.276  33.180  0.00  0.00    +0.115 A 
ENDBRANCH  17  18
ENDBRANCH  14  17
ENDBRANCH   3  14
TORSDOF 8
REMARK  Name = ../refined-set-2016/1ie9/1ie9_pocket.pdb
REMARK  287 active torsions:
REMARK  status: ('A' for Active; 'I' for Inactive)
REMARK    1  A    between atoms: _1  and  _3
REMARK    2  A    between atoms: _3  and  _4
REMARK    3  A    between atoms: _3  and  _6
REMARK    4  A    between atoms: _6  and  _7
REMARK    5  A    between atoms: _10  and  _12
REMARK    6  A    between atoms: _12  and  _13
REMARK    7  A    between atoms: _12  and  _15
REMARK    8  A    between atoms: _15  and  _16
REMARK    9  A    between atoms: _21  and  _22
REMARK   10  A    between atoms: _24  and  _26
REMARK   11  A    between atoms: _26  and  _27
REMARK   12  A    between atoms: _26  and  _29
REMARK   13  A    between atoms: _29  and  _30
REMARK   14  A    between atoms: _34  and  _35
REMARK   15  A    between atoms: _40  and  _42
REMARK   16  A    between atoms: _42  and  _43
REMARK   17  A    between atoms: _42  and  _45
REMARK   18  A    between atoms: _45  and  _46
REMARK   19  A    between atoms: _51  and  _52
REMARK   20  A    between atoms: _54  and  _56
REMARK   21  A    between atoms: _56  and  _57
REMARK   22  A    between atoms: _56  and  _59
REMARK   23  A    between atoms: _59  and  _60
REMARK   24  A    between atoms: _66  and  _68
REMARK   25  A    between atoms: _68  and  _69
REMARK   26  A    between atoms: _68  and  _71
REMARK   27  A    between atoms: _71  and  _72
REMARK   28  A    between atoms: _78  and  _80
REMARK   29  A    between atoms: _80  and  _81
REMARK   30  A    between atoms: _80  and  _83
REMARK   31  A    between atoms: _83  and  _84
REMARK   32  A    between atoms: _84  and  _85
REMARK   33  A    between atoms: _85  and  _86
REMARK   34  A    between atoms: _95  and  _97
REMARK   35  A    between atoms: _97  and  _98
REMARK   36  A    between atoms: _97  and  _100
REMARK   37  A    between atoms: _100  and  _101
REMARK   38  A    between atoms: _104  and  _106
REMARK   39  A    between atoms: _106  and  _107
REMARK   40  A    between atoms: _106  and  _109
REMARK   41  A    between atoms: _109  and  _110
REMARK   42  A    between atoms: _110  and  _111
REMARK   43  A    between atoms: _113  and  _115
REMARK   44  A    between atoms: _115  and  _116
REMARK   45  A    between atoms: _115  and  _118
REMARK   46  A    between atoms: _118  and  _119
REMARK   47  A    between atoms: _123  and  _124
REMARK   48  A    between atoms: _129  and  _131
REMARK   49  A    between atoms: _131  and  _132
REMARK   50  A    between atoms: _131  and  _134
REMARK   51  A    between atoms: _134  and  _135
REMARK   52  A    between atoms: _140  and  _142
REMARK   53  A    between atoms: _142  and  _143
REMARK   54  A    between atoms: _142  and  _145
REMARK   55  A    between atoms: _145  and  _146
REMARK   56  A    between atoms: _149  and  _151
REMARK   57  A    between atoms: _151  and  _152
REMARK   58  A    between atoms: _155  and  _157
REMARK   59  A    between atoms: _157  and  _158
REMARK   60  A    between atoms: _157  and  _160
REMARK   61  A    between atoms: _160  and  _161
REMARK   62  A    between atoms: _164  and  _166
REMARK   63  A    between atoms: _166  and  _167
REMARK   64  A    between atoms: _166  and  _169
REMARK   65  A    between atoms: _169  and  _170
REMARK   66  A    between atoms: _173  and  _175
REMARK   67  A    between atoms: _175  and  _176
REMARK   68  A    between atoms: _175  and  _178
REMARK   69  A    between atoms: _181  and  _183
REMARK   70  A    between atoms: _183  and  _184
REMARK   71  A    between atoms: _183  and  _186
REMARK   72  A    between atoms: _186  and  _187
REMARK   73  A    between atoms: _189  and  _191
REMARK   74  A    between atoms: _191  and  _192
REMARK   75  A    between atoms: _191  and  _194
REMARK   76  A    between atoms: _194  and  _195
REMARK   77  A    between atoms: _200  and  _201
REMARK   78  A    between atoms: _203  and  _205
REMARK   79  A    between atoms: _205  and  _206
REMARK   80  A    between atoms: _205  and  _208
REMARK   81  A    between atoms: _208  and  _209
REMARK   82  A    between atoms: _211  and  _213
REMARK   83  A    between atoms: _213  and  _214
REMARK   84  A    between atoms: _213  and  _216
REMARK   85  A    between atoms: _216  and  _217
REMARK   86  A    between atoms: _220  and  _222
REMARK   87  A    between atoms: _222  and  _223
REMARK   88  A    between atoms: _222  and  _225
REMARK   89  A    between atoms: _225  and  _226
REMARK   90  A    between atoms: _226  and  _227
REMARK   91  A    between atoms: _227  and  _228
REMARK   92  A    between atoms: _228  and  _229
REMARK   93  A    between atoms: _233  and  _235
REMARK   94  A    between atoms: _235  and  _236
REMARK   95  A    between atoms: _235  and  _238
REMARK   96  A    between atoms: _241  and  _243
REMARK   97  A    between atoms: _243  and  _244
REMARK   98  A    between atoms: _247  and  _249
REMARK   99  A    between atoms: _249  and  _250
REMARK  100  A    between atoms: _249  and  _252
REMARK  101  A    between atoms: _252  and  _253
REMARK  102  A    between atoms: _256  and  _258
REMARK  103  A    between atoms: _258  and  _259
REMARK  104  A    between atoms: _258  and  _261
REMARK  105  A    between atoms: _261  and  _262
REMARK  106  A    between atoms: _262  and  _263
REMARK  107  A    between atoms: _266  and  _268
REMARK  108  A    between atoms: _268  and  _269
REMARK  109  A    between atoms: _268  and  _271
REMARK  110  A    between atoms: _274  and  _276
REMARK  111  A    between atoms: _276  and  _277
REMARK  112  A    between atoms: _276  and  _279
REMARK  113  A    between atoms: _279  and  _280
REMARK  114  A    between atoms: _283  and  _285
REMARK  115  A    between atoms: _285  and  _286
REMARK  116  A    between atoms: _285  and  _288
REMARK  117  A    between atoms: _288  and  _289
REMARK  118  A    between atoms: _289  and  _290
REMARK  119  A    between atoms: _292  and  _294
REMARK  120  A    between atoms: _294  and  _295
REMARK  121  A    between atoms: _294  and  _297
REMARK  122  A    between atoms: _297  and  _298
REMARK  123  A    between atoms: _301  and  _303
REMARK  124  A    between atoms: _303  and  _304
REMARK  125  A    between atoms: _303  and  _306
REMARK  126  A    between atoms: _306  and  _307
REMARK  127  A    between atoms: _307  and  _308
REMARK  128  A    between atoms: _308  and  _309
REMARK  129  A    between atoms: _318  and  _320
REMARK  130  A    between atoms: _320  and  _321
REMARK  131  A    between atoms: _320  and  _323
REMARK  132  A    between atoms: _323  and  _324
REMARK  133  A    between atoms: _326  and  _328
REMARK  134  A    between atoms: _328  and  _329
REMARK  135  A    between atoms: _328  and  _331
REMARK  136  A    between atoms: _331  and  _332
REMARK  137  A    between atoms: _337  and  _339
REMARK  138  A    between atoms: _339  and  _340
REMARK  139  A    between atoms: _339  and  _342
REMARK  140  A    between atoms: _342  and  _343
REMARK  141  A    between atoms: _343  and  _344
REMARK  142  A    between atoms: _347  and  _349
REMARK  143  A    between atoms: _349  and  _350
REMARK  144  A    between atoms: _349  and  _352
REMARK  145  A    between atoms: _352  and  _353
REMARK  146  A    between atoms: _355  and  _357
REMARK  147  A    between atoms: _357  and  _358
REMARK  148  A    between atoms: _357  and  _360
REMARK  149  A    between atoms: _360  and  _361
REMARK  150  A    between atoms: _367  and  _369
REMARK  151  A    between atoms: _369  and  _370
REMARK  152  A    between atoms: _369  and  _372
REMARK  153  A    between atoms: _372  and  _373
REMARK  154  A    between atoms: _375  and  _377
REMARK  155  A    between atoms: _377  and  _378
REMARK  156  A    between atoms: _377  and  _380
REMARK  157  A    between atoms: _380  and  _381
REMARK  158  A    between atoms: _391  and  _393
REMARK  159  A    between atoms: _393  and  _394
REMARK  160  A    between atoms: _393  and  _396
REMARK  161  A    between atoms: _396  and  _397
REMARK  162  A    between atoms: _400  and  _402
REMARK  163  A    between atoms: _402  and  _403
REMARK  164  A    between atoms: _402  and  _405
REMARK  165  A    between atoms: _407  and  _409
REMARK  166  A    between atoms: _409  and  _410
REMARK  167  A    between atoms: _409  and  _412
REMARK  168  A    between atoms: _412  and  _413
REMARK  169  A    between atoms: _418  and  _419
REMARK  170  A    between atoms: _421  and  _423
REMARK  171  A    between atoms: _423  and  _424
REMARK  172  A    between atoms: _423  and  _426
REMARK  173  A    between atoms: _426  and  _427
REMARK  174  A    between atoms: _427  and  _428
REMARK  175  A    between atoms: _428  and  _429
REMARK  176  A    between atoms: _429  and  _430
REMARK  177  A    between atoms: _434  and  _436
REMARK  178  A    between atoms: _436  and  _437
REMARK  179  A    between atoms: _436  and  _439
REMARK  180  A    between atoms: _439  and  _440
REMARK  181  A    between atoms: _445  and  _446
REMARK  182  A    between atoms: _448  and  _450
REMARK  183  A    between atoms: _450  and  _451
REMARK  184  A    between atoms: _450  and  _453
REMARK  185  A    between atoms: _453  and  _454
REMARK  186  A    between atoms: _454  and  _455
REMARK  187  A    between atoms: _455  and  _456
REMARK  188  A    between atoms: _465  and  _467
REMARK  189  A    between atoms: _467  and  _468
REMARK  190  A    between atoms: _467  and  _470
REMARK  191  A    between atoms: _473  and  _475
REMARK  192  A    between atoms: _475  and  _476
REMARK  193  A    between atoms: _475  and  _478
REMARK  194  A    between atoms: _478  and  _479
REMARK  195  A    between atoms: _482  and  _484
REMARK  196  A    between atoms: _484  and  _485
REMARK  197  A    between atoms: _484  and  _487
REMARK  198  A    between atoms: _490  and  _492
REMARK  199  A    between atoms: _492  and  _493
REMARK  200  A    between atoms: _492  and  _495
REMARK  201  A    between atoms: _495  and  _496
REMARK  202  A    between atoms: _499  and  _501
REMARK  203  A    between atoms: _501  and  _502
REMARK  204  A    between atoms: _505  and  _507
REMARK  205  A    between atoms: _507  and  _508
REMARK  206  A    between atoms: _510  and  _512
REMARK  207  A    between atoms: _512  and  _513
REMARK  208  A    between atoms: _512  and  _515
REMARK  209  A    between atoms: _515  and  _516
REMARK  210  A    between atoms: _521  and  _523
REMARK  211  A    between atoms: _523  and  _524
REMARK  212  A    between atoms: _523  and  _526
REMARK  213  A    between atoms: _526  and  _527
REMARK  214  A    between atoms: _530  and  _532
REMARK  215  A    between atoms: _532  and  _533
REMARK  216  A    between atoms: _532  and  _535
REMARK  217  A    between atoms: _535  and  _536
REMARK  218  A    between atoms: _539  and  _541
REMARK  219  A    between atoms: _541  and  _542
REMARK  220  A    between atoms: _541  and  _544
REMARK  221  A    between atoms: _544  and  _545
REMARK  222  A    between atoms: _548  and  _550
REMARK  223  A    between atoms: _550  and  _551
REMARK  224  A    between atoms: _550  and  _553
REMARK  225  A    between atoms: _553  and  _554
REMARK  226  A    between atoms: _554  and  _555
REMARK  227  A    between atoms: _560  and  _562
REMARK  228  A    between atoms: _562  and  _563
REMARK  229  A    between atoms: _562  and  _565
REMARK  230  A    between atoms: _565  and  _566
REMARK  231  A    between atoms: _569  and  _571
REMARK  232  A    between atoms: _571  and  _572
REMARK  233  A    between atoms: _571  and  _574
REMARK  234  A    between atoms: _574  and  _575
REMARK  235  A    between atoms: _580  and  _582
REMARK  236  A    between atoms: _582  and  _583
REMARK  237  A    between atoms: _582  and  _585
REMARK  238  A    between atoms: _585  and  _586
REMARK  239  A    between atoms: _588  and  _590
REMARK  240  A    between atoms: _590  and  _591
REMARK  241  A    between atoms: _590  and  _593
REMARK  242  A    between atoms: _593  and  _594
REMARK  243  A    between atoms: _594  and  _595
REMARK  244  A    between atoms: _600  and  _602
REMARK  245  A    between atoms: _602  and  _603
REMARK  246  A    between atoms: _602  and  _605
REMARK  247  A    between atoms: _605  and  _606
REMARK  248  A    between atoms: _611  and  _612
REMARK  249  A    between atoms: _614  and  _616
REMARK  250  A    between atoms: _616  and  _617
REMARK  251  A    between atoms: _616  and  _619
REMARK  252  A    between atoms: _619  and  _620
REMARK  253  A    between atoms: _620  and  _621
REMARK  254  A    between atoms: _621  and  _622
REMARK  255  A    between atoms: _631  and  _633
REMARK  256  A    between atoms: _633  and  _634
REMARK  257  A    between atoms: _633  and  _636
REMARK  258  A    between atoms: _636  and  _637
REMARK  259  A    between atoms: _640  and  _642
REMARK  260  A    between atoms: _642  and  _643
REMARK  261  A    between atoms: _642  and  _645
REMARK  262  A    between atoms: _647  and  _649
REMARK  263  A    between atoms: _649  and  _650
REMARK  264  A    between atoms: _649  and  _652
REMARK  265  A    between atoms: _652  and  _653
REMARK  266  A    between atoms: _653  and  _654
REMARK  267  A    between atoms: _654  and  _655
REMARK  268  A    between atoms: _655  and  _656
REMARK  269  A    between atoms: _660  and  _662
REMARK  270  A    between atoms: _662  and  _663
REMARK  271  A    between atoms: _662  and  _665
REMARK  272  A    between atoms: _665  and  _666
REMARK  273  A    between atoms: _669  and  _671
REMARK  274  A    between atoms: _671  and  _672
REMARK  275  A    between atoms: _671  and  _674
REMARK  276  A    between atoms: _674  and  _675
REMARK  277  A    between atoms: _678  and  _680
REMARK  278  A    between atoms: _680  and  _681
REMARK  279  A    between atoms: _680  and  _683
REMARK  280  A    between atoms: _686  and  _688
REMARK  281  A    between atoms: _688  and  _689
REMARK  282  A    between atoms: _688  and  _691
REMARK  283  A    between atoms: _691  and  _692
REMARK  284  A    between atoms: _695  and  _697
REMARK  285  A    between atoms: _697  and  _698
REMARK  286  A    between atoms: _697  and  _700
REMARK  287  A    between atoms: _700  and  _701
REMARK                            x       y       z     vdW  Elec       q    Type
REMARK                         _______ _______ _______ _____ _____    ______ ____
ROOT
ATOM      1  C   LEU A   1      12.109  33.330  36.973  0.00  0.00    +0.238 C 
ATOM      2  O   LEU A   1      12.938  32.772  37.693  0.00  0.00    -0.274 OA
ATOM      3  N   ILE A   2      12.322  33.563  35.685  0.00  0.00    -0.298 N 
ATOM      4  H   ILE A   2      11.626  34.114  35.143  0.00  0.00    +0.150 HD
ENDROOT
BRANCH   1   5
ATOM      5  CA  LEU A   1      10.802  33.851  37.543  0.00  0.00    +0.145 C 
BRANCH   5   6
ATOM      6  N   LEU A   1      10.588  35.228  37.096  0.00  0.00    -0.238 NA
ATOM      7  H   LEU A   1      10.207  35.410  36.146  0.00  0.00    +0.142 HD
ENDBRANCH   5   6
BRANCH   5   8
ATOM      8  CB  LEU A   1       9.673  32.915  37.093  0.00  0.00    +0.026 C 
BRANCH   8   9
ATOM      9  CG  LEU A   1       9.952  31.431  37.403  0.00  0.00    +0.002 C 
ATOM     10  CD2 LEU A   1      10.021  31.214  38.908  0.00  0.00    +0.000 C 
ATOM     11  CD1 LEU A   1       8.886  30.549  36.779  0.00  0.00    +0.000 C 
ENDBRANCH   8   9
ENDBRANCH   5   8
ENDBRANCH   1   5
BRANCH   3  12
ATOM     12  CA  ILE A   2      13.512  33.061  35.017  0.00  0.00    +0.137 C 
BRANCH  12  13
ATOM     13  C   ILE A   2      14.843  33.566  35.561  0.00  0.00    +0.227 C 
ATOM     14  O   ILE A   2      15.797  32.773  35.708  0.00  0.00    -0.286 OA
ENDBRANCH  12  13
BRANCH  12  15
ATOM     15  CB  ILE A   2      13.437  33.362  33.530  0.00  0.00    +0.026 C 
ATOM     16  CG2 ILE A   2      14.679  32.831  32.844  0.00  0.00    +0.002 C 
BRANCH  15  17
ATOM     17  CG1 ILE A   2      12.196  32.686  32.943  0.00  0.00    +0.002 C 
ATOM     18  CD1 ILE A   2      11.764  33.254  31.594  0.00  0.00    +0.000 C 
ENDBRANCH  15  17
ENDBRANCH  12  15
ENDBRANCH   3  12
TORSDOF 8
REMARK  Name = ../refined-set-2016/1ie9/1ie9_pocket.pdb
REMARK  287 active torsions:
REMARK  status: ('A' for Active; 'I' for Inactive)
REMARK    1  A    between atoms: _1  and  _3
REMARK    2  A    between atoms: _3  and  _4
REMARK    3  A    between atoms: _3  and  _6
REMARK    4  A    between atoms: _6  and  _7
REMARK    5  A    between atoms: _10  and  _12
REMARK    6  A    between atoms: _12  and  _13
REMARK    7  A    between atoms: _12  and  _15
REMARK    8  A    between atoms: _15  and  _16
REMARK    9  A    between atoms: _21  and  _22
REMARK   10  A    between atoms: _24  and  _26
REMARK   11  A    between atoms: _26  and  _27
REMARK   12  A    between atoms: _26  and  _29
REMARK   13  A    between atoms: _29  and  _30
REMARK   14  A    between atoms: _34  and  _35
REMARK   15  A    between atoms: _40  and  _42
REMARK   16  A    between atoms: _42  and  _43
REMARK   17  A    between atoms: _42  and  _45
REMARK   18  A    between atoms: _45  and  _46
REMARK   19  A    between atoms: _51  and  _52
REMARK   20  A    between atoms: _54  and  _56
REMARK   21  A    between atoms: _56  and  _57
REMARK   22  A    between atoms: _56  and  _59
REMARK   23  A    between atoms: _59  and  _60
REMARK   24  A    between atoms: _66  and  _68
REMARK   25  A    between atoms: _68  and  _69
REMARK   26  A    between atoms: _68  and  _71
REMARK   27  A    between atoms: _71  and  _72
REMARK   28  A    between atoms: _78  and  _80
REMARK   29  A    between atoms: _80  and  _81
REMARK   30  A    between atoms: _80  and  _83
REMARK   31  A    between atoms: _83  and  _84
REMARK   32  A    between atoms: _84  and  _85
REMARK   33  A    between atoms: _85  and  _86
REMARK   34  A    between atoms: _95  and  _97
REMARK   35  A    between atoms: _97  and  _98
REMARK   36  A    between atoms: _97  and  _100
REMARK   37  A    between atoms: _100  and  _101
REMARK   38  A    between atoms: _104  and  _106
REMARK   39  A    between atoms: _106  and  _107
REMARK   40  A    between atoms: _106  and  _109
REMARK   41  A    between atoms: _109  and  _110
REMARK   42  A    between atoms: _110  and  _111
REMARK   43  A    between atoms: _113  and  _115
REMARK   44  A    between atoms: _115  and  _116
REMARK   45  A    between atoms: _115  and  _118
REMARK   46  A    between atoms: _118  and  _119
REMARK   47  A    between atoms: _123  and  _124
REMARK   48  A    between atoms: _129  and  _131
REMARK   49  A    between atoms: _131  and  _132
REMARK   50  A    between atoms: _131  and  _134
REMARK   51  A    between atoms: _134  and  _135
REMARK   52  A    between atoms: _140  and  _142
REMARK   53  A    between atoms: _142  and  _143
REMARK   54  A    between atoms: _142  and  _145
REMARK   55  A    between atoms: _145  and  _146
REMARK   56  A    between atoms: _149  and  _151
REMARK   57  A    between atoms: _151  and  _152
REMARK   58  A    between atoms: _155  and  _157
REMARK   59  A    between atoms: _157  and  _158
REMARK   60  A    between atoms: _157  and  _160
REMARK   61  A    between atoms: _160  and  _161
REMARK   62  A    between atoms: _164  and  _166
REMARK   63  A    between atoms: _166  and  _167
REMARK   64  A    between atoms: _166  and  _169
REMARK   65  A    between atoms: _169  and  _170
REMARK   66  A    between atoms: _173  and  _175
REMARK   67  A    between atoms: _175  and  _176
REMARK   68  A    between atoms: _175  and  _178
REMARK   69  A    between atoms: _181  and  _183
REMARK   70  A    between atoms: _183  and  _184
REMARK   71  A    between atoms: _183  and  _186
REMARK   72  A    between atoms: _186  and  _187
REMARK   73  A    between atoms: _189  and  _191
REMARK   74  A    between atoms: _191  and  _192
REMARK   75  A    between atoms: _191  and  _194
REMARK   76  A    between atoms: _194  and  _195
REMARK   77  A    between atoms: _200  and  _201
REMARK   78  A    between atoms: _203  and  _205
REMARK   79  A    between atoms: _205  and  _206
REMARK   80  A    between atoms: _205  and  _208
REMARK   81  A    between atoms: _208  and  _209
REMARK   82  A    between atoms: _211  and  _213
REMARK   83  A    between atoms: _213  and  _214
REMARK   84  A    between atoms: _213  and  _216
REMARK   85  A    between atoms: _216  and  _217
REMARK   86  A    between atoms: _220  and  _222
REMARK   87  A    between atoms: _222  and  _223
REMARK   88  A    between atoms: _222  and  _225
REMARK   89  A    between atoms: _225  and  _226
REMARK   90  A    between atoms: _226  and  _227
REMARK   91  A    between atoms: _227  and  _228
REMARK   92  A    between atoms: _228  and  _229
REMARK   93  A    between atoms: _233  and  _235
REMARK   94  A    between atoms: _235  and  _236
REMARK   95  A    between atoms: _235  and  _238
REMARK   96  A    between atoms: _241  and  _243
REMARK   97  A    between atoms: _243  and  _244
REMARK   98  A    between atoms: _247  and  _249
REMARK   99  A    between atoms: _249  and  _250
REMARK  100  A    between atoms: _249  and  _252
REMARK  101  A    between atoms: _252  and  _253
REMARK  102  A    between atoms: _256  and  _258
REMARK  103  A    between atoms: _258  and  _259
REMARK  104  A    between atoms: _258  and  _261
REMARK  105  A    between atoms: _261  and  _262
REMARK  106  A    between atoms: _262  and  _263
REMARK  107  A    between atoms: _266  and  _268
REMARK  108  A    between atoms: _268  and  _269
REMARK  109  A    between atoms: _268  and  _271
REMARK  110  A    between atoms: _274  and  _276
REMARK  111  A    between atoms: _276  and  _277
REMARK  112  A    between atoms: _276  and  _279
REMARK  113  A    between atoms: _279  and  _280
REMARK  114  A    between atoms: _283  and  _285
REMARK  115  A    between atoms: _285  and  _286
REMARK  116  A    between atoms: _285  and  _288
REMARK  117  A    between atoms: _288  and  _289
REMARK  118  A    between atoms: _289  and  _290
REMARK  119  A    between atoms: _292  and  _294
REMARK  120  A    between atoms: _294  and  _295
REMARK  121  A    between atoms: _294  and  _297
REMARK  122  A    between atoms: _297  and  _298
REMARK  123  A    between atoms: _301  and  _303
REMARK  124  A    between atoms: _303  and  _304
REMARK  125  A    between atoms: _303  and  _306
REMARK  126  A    between atoms: _306  and  _307
REMARK  127  A    between atoms: _307  and  _308
REMARK  128  A    between atoms: _308  and  _309
REMARK  129  A    between atoms: _318  and  _320
REMARK  130  A    between atoms: _320  and  _321
REMARK  131  A    between atoms: _320  and  _323
REMARK  132  A    between atoms: _323  and  _324
REMARK  133  A    between atoms: _326  and  _328
REMARK  134  A    between atoms: _328  and  _329
REMARK  135  A    between atoms: _328  and  _331
REMARK  136  A    between atoms: _331  and  _332
REMARK  137  A    between atoms: _337  and  _339
REMARK  138  A    between atoms: _339  and  _340
REMARK  139  A    between atoms: _339  and  _342
REMARK  140  A    between atoms: _342  and  _343
REMARK  141  A    between atoms: _343  and  _344
REMARK  142  A    between atoms: _347  and  _349
REMARK  143  A    between atoms: _349  and  _350
REMARK  144  A    between atoms: _349  and  _352
REMARK  145  A    between atoms: _352  and  _353
REMARK  146  A    between atoms: _355  and  _357
REMARK  147  A    between atoms: _357  and  _358
REMARK  148  A    between atoms: _357  and  _360
REMARK  149  A    between atoms: _360  and  _361
REMARK  150  A    between atoms: _367  and  _369
REMARK  151  A    between atoms: _369  and  _370
REMARK  152  A    between atoms: _369  and  _372
REMARK  153  A    between atoms: _372  and  _373
REMARK  154  A    between atoms: _375  and  _377
REMARK  155  A    between atoms: _377  and  _378
REMARK  156  A    between atoms: _377  and  _380
REMARK  157  A    between atoms: _380  and  _381
REMARK  158  A    between atoms: _391  and  _393
REMARK  159  A    between atoms: _393  and  _394
REMARK  160  A    between atoms: _393  and  _396
REMARK  161  A    between atoms: _396  and  _397
REMARK  162  A    between atoms: _400  and  _402
REMARK  163  A    between atoms: _402  and  _403
REMARK  164  A    between atoms: _402  and  _405
REMARK  165  A    between atoms: _407  and  _409
REMARK  166  A    between atoms: _409  and  _410
REMARK  167  A    between atoms: _409  and  _412
REMARK  168  A    between atoms: _412  and  _413
REMARK  169  A    between atoms: _418  and  _419
REMARK  170  A    between atoms: _421  and  _423
REMARK  171  A    between atoms: _423  and  _424
REMARK  172  A    between atoms: _423  and  _426
REMARK  173  A    between atoms: _426  and  _427
REMARK  174  A    between atoms: _427  and  _428
REMARK  175  A    between atoms: _428  and  _429
REMARK  176  A    between atoms: _429  and  _430
REMARK  177  A    between atoms: _434  and  _436
REMARK  178  A    between atoms: _436  and  _437
REMARK  179  A    between atoms: _436  and  _439
REMARK  180  A    between atoms: _439  and  _440
REMARK  181  A    between atoms: _445  and  _446
REMARK  182  A    between atoms: _448  and  _450
REMARK  183  A    between atoms: _450  and  _451
REMARK  184  A    between atoms: _450  and  _453
REMARK  185  A    between atoms: _453  and  _454
REMARK  186  A    between atoms: _454  and  _455
REMARK  187  A    between atoms: _455  and  _456
REMARK  188  A    between atoms: _465  and  _467
REMARK  189  A    between atoms: _467  and  _468
REMARK  190  A    between atoms: _467  and  _470
REMARK  191  A    between atoms: _473  and  _475
REMARK  192  A    between atoms: _475  and  _476
REMARK  193  A    between atoms: _475  and  _478
REMARK  194  A    between atoms: _478  and  _479
REMARK  195  A    between atoms: _482  and  _484
REMARK  196  A    between atoms: _484  and  _485
REMARK  197  A    between atoms: _484  and  _487
REMARK  198  A    between atoms: _490  and  _492
REMARK  199  A    between atoms: _492  and  _493
REMARK  200  A    between atoms: _492  and  _495
REMARK  201  A    between atoms: _495  and  _496
REMARK  202  A    between atoms: _499  and  _501
REMARK  203  A    between atoms: _501  and  _502
REMARK  204  A    between atoms: _505  and  _507
REMARK  205  A    between atoms: _507  and  _508
REMARK  206  A    between atoms: _510  and  _512
REMARK  207  A    between atoms: _512  and  _513
REMARK  208  A    between atoms: _512  and  _515
REMARK  209  A    between atoms: _515  and  _516
REMARK  210  A    between atoms: _521  and  _523
REMARK  211  A    between atoms: _523  and  _524
REMARK  212  A    between atoms: _523  and  _526
REMARK  213  A    between atoms: _526  and  _527
REMARK  214  A    between atoms: _530  and  _532
REMARK  215  A    between atoms: _532  and  _533
REMARK  216  A    between atoms: _532  and  _535
REMARK  217  A    between atoms: _535  and  _536
REMARK  218  A    between atoms: _539  and  _541
REMARK  219  A    between atoms: _541  and  _542
REMARK  220  A    between atoms: _541  and  _544
REMARK  221  A    between atoms: _544  and  _545
REMARK  222  A    between atoms: _548  and  _550
REMARK  223  A    between atoms: _550  and  _551
REMARK  224  A    between atoms: _550  and  _553
REMARK  225  A    between atoms: _553  and  _554
REMARK  226  A    between atoms: _554  and  _555
REMARK  227  A    between atoms: _560  and  _562
REMARK  228  A    between atoms: _562  and  _563
REMARK  229  A    between atoms: _562  and  _565
REMARK  230  A    between atoms: _565  and  _566
REMARK  231  A    between atoms: _569  and  _571
REMARK  232  A    between atoms: _571  and  _572
REMARK  233  A    between atoms: _571  and  _574
REMARK  234  A    between atoms: _574  and  _575
REMARK  235  A    between atoms: _580  and  _582
REMARK  236  A    between atoms: _582  and  _583
REMARK  237  A    between atoms: _582  and  _585
REMARK  238  A    between atoms: _585  and  _586
REMARK  239  A    between atoms: _588  and  _590
REMARK  240  A    between atoms: _590  and  _591
REMARK  241  A    between atoms: _590  and  _593
REMARK  242  A    between atoms: _593  and  _594
REMARK  243  A    between atoms: _594  and  _595
REMARK  244  A    between atoms: _600  and  _602
REMARK  245  A    between atoms: _602  and  _603
REMARK  246  A    between atoms: _602  and  _605
REMARK  247  A    between atoms: _605  and  _606
REMARK  248  A    between atoms: _611  and  _612
REMARK  249  A    between atoms: _614  and  _616
REMARK  250  A    between atoms: _616  and  _617
REMARK  251  A    between atoms: _616  and  _619
REMARK  252  A    between atoms: _619  and  _620
REMARK  253  A    between atoms: _620  and  _621
REMARK  254  A    between atoms: _621  and  _622
REMARK  255  A    between atoms: _631  and  _633
REMARK  256  A    between atoms: _633  and  _634
REMARK  257  A    between atoms: _633  and  _636
REMARK  258  A    between atoms: _636  and  _637
REMARK  259  A    between atoms: _640  and  _642
REMARK  260  A    between atoms: _642  and  _643
REMARK  261  A    between atoms: _642  and  _645
REMARK  262  A    between atoms: _647  and  _649
REMARK  263  A    between atoms: _649  and  _650
REMARK  264  A    between atoms: _649  and  _652
REMARK  265  A    between atoms: _652  and  _653
REMARK  266  A    between atoms: _653  and  _654
REMARK  267  A    between atoms: _654  and  _655
REMARK  268  A    between atoms: _655  and  _656
REMARK  269  A    between atoms: _660  and  _662
REMARK  270  A    between atoms: _662  and  _663
REMARK  271  A    between atoms: _662  and  _665
REMARK  272  A    between atoms: _665  and  _666
REMARK  273  A    between atoms: _669  and  _671
REMARK  274  A    between atoms: _671  and  _672
REMARK  275  A    between atoms: _671  and  _674
REMARK  276  A    between atoms: _674  and  _675
REMARK  277  A    between atoms: _678  and  _680
REMARK  278  A    between atoms: _680  and  _681
REMARK  279  A    between atoms: _680  and  _683
REMARK  280  A    between atoms: _686  and  _688
REMARK  281  A    between atoms: _688  and  _689
REMARK  282  A    between atoms: _688  and  _691
REMARK  283  A    between atoms: _691  and  _692
REMARK  284  A    between atoms: _695  and  _697
REMARK  285  A    between atoms: _697  and  _698
REMARK  286  A    between atoms: _697  and  _700
REMARK  287  A    between atoms: _700  and  _701
REMARK                            x       y       z     vdW  Elec       q    Type
REMARK                         _______ _______ _______ _____ _____    ______ ____
ROOT
ATOM      1  CA  LEU A   1      15.832  30.550  38.557  0.00  0.00    +0.133 C 
ENDROOT
BRANCH   1   2
ATOM      2  N   LEU A   1      15.645  31.980  38.764  0.00  0.00    -0.239 NA
ATOM      3  H   LEU A   1      14.976  32.516  38.175  0.00  0.00    +0.142 HD
ENDBRANCH   1   2
BRANCH   1   4
ATOM      4  C   LEU A   1      17.247  30.243  38.051  0.00  0.00    +0.224 C 
ATOM      5  O   LEU A   1      17.913  29.354  38.576  0.00  0.00    -0.287 OA
ENDBRANCH   1   4
BRANCH   1   6
ATOM      6  CB  LEU A   1      14.765  30.010  37.596  0.00  0.00    +0.025 C 
BRANCH   6   7
ATOM      7  CG  LEU A   1      14.897  28.532  37.194  0.00  0.00    +0.002 C 
ATOM      8  CD2 LEU A   1      14.964  27.613  38.423  0.00  0.00    +0.000 C 
ATOM      9  CD1 LEU A   1      13.717  28.174  36.298  0.00  0.00    +0.000 C 
ENDBRANCH   6   7
ENDBRANCH   1   6
TORSDOF 4
REMARK  Name = ../refined-set-2016/1ie9/1ie9_pocket.pdb
REMARK  287 active torsions:
REMARK  status: ('A' for Active; 'I' for Inactive)
REMARK    1  A    between atoms: _1  and  _3
REMARK    2  A    between atoms: _3  and  _4
REMARK    3  A    between atoms: _3  and  _6
REMARK    4  A    between atoms: _6  and  _7
REMARK    5  A    between atoms: _10  and  _12
REMARK    6  A    between atoms: _12  and  _13
REMARK    7  A    between atoms: _12  and  _15
REMARK    8  A    between atoms: _15  and  _16
REMARK    9  A    between atoms: _21  and  _22
REMARK   10  A    between atoms: _24  and  _26
REMARK   11  A    between atoms: _26  and  _27
REMARK   12  A    between atoms: _26  and  _29
REMARK   13  A    between atoms: _29  and  _30
REMARK   14  A    between atoms: _34  and  _35
REMARK   15  A    between atoms: _40  and  _42
REMARK   16  A    between atoms: _42  and  _43
REMARK   17  A    between atoms: _42  and  _45
REMARK   18  A    between atoms: _45  and  _46
REMARK   19  A    between atoms: _51  and  _52
REMARK   20  A    between atoms: _54  and  _56
REMARK   21  A    between atoms: _56  and  _57
REMARK   22  A    between atoms: _56  and  _59
REMARK   23  A    between atoms: _59  and  _60
REMARK   24  A    between atoms: _66  and  _68
REMARK   25  A    between atoms: _68  and  _69
REMARK   26  A    between atoms: _68  and  _71
REMARK   27  A    between atoms: _71  and  _72
REMARK   28  A    between atoms: _78  and  _80
REMARK   29  A    between atoms: _80  and  _81
REMARK   30  A    between atoms: _80  and  _83
REMARK   31  A    between atoms: _83  and  _84
REMARK   32  A    between atoms: _84  and  _85
REMARK   33  A    between atoms: _85  and  _86
REMARK   34  A    between atoms: _95  and  _97
REMARK   35  A    between atoms: _97  and  _98
REMARK   36  A    between atoms: _97  and  _100
REMARK   37  A    between atoms: _100  and  _101
REMARK   38  A    between atoms: _104  and  _106
REMARK   39  A    between atoms: _106  and  _107
REMARK   40  A    between atoms: _106  and  _109
REMARK   41  A    between atoms: _109  and  _110
REMARK   42  A    between atoms: _110  and  _111
REMARK   43  A    between atoms: _113  and  _115
REMARK   44  A    between atoms: _115  and  _116
REMARK   45  A    between atoms: _115  and  _118
REMARK   46  A    between atoms: _118  and  _119
REMARK   47  A    between atoms: _123  and  _124
REMARK   48  A    between atoms: _129  and  _131
REMARK   49  A    between atoms: _131  and  _132
REMARK   50  A    between atoms: _131  and  _134
REMARK   51  A    between atoms: _134  and  _135
REMARK   52  A    between atoms: _140  and  _142
REMARK   53  A    between atoms: _142  and  _143
REMARK   54  A    between atoms: _142  and  _145
REMARK   55  A    between atoms: _145  and  _146
REMARK   56  A    between atoms: _149  and  _151
REMARK   57  A    between atoms: _151  and  _152
REMARK   58  A    between atoms: _155  and  _157
REMARK   59  A    between atoms: _157  and  _158
REMARK   60  A    between atoms: _157  and  _160
REMARK   61  A    between atoms: _160  and  _161
REMARK   62  A    between atoms: _164  and  _166
REMARK   63  A    between atoms: _166  and  _167
REMARK   64  A    between atoms: _166  and  _169
REMARK   65  A    between atoms: _169  and  _170
REMARK   66  A    between atoms: _173  and  _175
REMARK   67  A    between atoms: _175  and  _176
REMARK   68  A    between atoms: _175  and  _178
REMARK   69  A    between atoms: _181  and  _183
REMARK   70  A    between atoms: _183  and  _184
REMARK   71  A    between atoms: _183  and  _186
REMARK   72  A    between atoms: _186  and  _187
REMARK   73  A    between atoms: _189  and  _191
REMARK   74  A    between atoms: _191  and  _192
REMARK   75  A    between atoms: _191  and  _194
REMARK   76  A    between atoms: _194  and  _195
REMARK   77  A    between atoms: _200  and  _201
REMARK   78  A    between atoms: _203  and  _205
REMARK   79  A    between atoms: _205  and  _206
REMARK   80  A    between atoms: _205  and  _208
REMARK   81  A    between atoms: _208  and  _209
REMARK   82  A    between atoms: _211  and  _213
REMARK   83  A    between atoms: _213  and  _214
REMARK   84  A    between atoms: _213  and  _216
REMARK   85  A    between atoms: _216  and  _217
REMARK   86  A    between atoms: _220  and  _222
REMARK   87  A    between atoms: _222  and  _223
REMARK   88  A    between atoms: _222  and  _225
REMARK   89  A    between atoms: _225  and  _226
REMARK   90  A    between atoms: _226  and  _227
REMARK   91  A    between atoms: _227  and  _228
REMARK   92  A    between atoms: _228  and  _229
REMARK   93  A    between atoms: _233  and  _235
REMARK   94  A    between atoms: _235  and  _236
REMARK   95  A    between atoms: _235  and  _238
REMARK   96  A    between atoms: _241  and  _243
REMARK   97  A    between atoms: _243  and  _244
REMARK   98  A    between atoms: _247  and  _249
REMARK   99  A    between atoms: _249  and  _250
REMARK  100  A    between atoms: _249  and  _252
REMARK  101  A    between atoms: _252  and  _253
REMARK  102  A    between atoms: _256  and  _258
REMARK  103  A    between atoms: _258  and  _259
REMARK  104  A    between atoms: _258  and  _261
REMARK  105  A    between atoms: _261  and  _262
REMARK  106  A    between atoms: _262  and  _263
REMARK  107  A    between atoms: _266  and  _268
REMARK  108  A    between atoms: _268  and  _269
REMARK  109  A    between atoms: _268  and  _271
REMARK  110  A    between atoms: _274  and  _276
REMARK  111  A    between atoms: _276  and  _277
REMARK  112  A    between atoms: _276  and  _279
REMARK  113  A    between atoms: _279  and  _280
REMARK  114  A    between atoms: _283  and  _285
REMARK  115  A    between atoms: _285  and  _286
REMARK  116  A    between atoms: _285  and  _288
REMARK  117  A    between atoms: _288  and  _289
REMARK  118  A    between atoms: _289  and  _290
REMARK  119  A    between atoms: _292  and  _294
REMARK  120  A    between atoms: _294  and  _295
REMARK  121  A    between atoms: _294  and  _297
REMARK  122  A    between atoms: _297  and  _298
REMARK  123  A    between atoms: _301  and  _303
REMARK  124  A    between atoms: _303  and  _304
REMARK  125  A    between atoms: _303  and  _306
REMARK  126  A    between atoms: _306  and  _307
REMARK  127  A    between atoms: _307  and  _308
REMARK  128  A    between atoms: _308  and  _309
REMARK  129  A    between atoms: _318  and  _320
REMARK  130  A    between atoms: _320  and  _321
REMARK  131  A    between atoms: _320  and  _323
REMARK  132  A    between atoms: _323  and  _324
REMARK  133  A    between atoms: _326  and  _328
REMARK  134  A    between atoms: _328  and  _329
REMARK  135  A    between atoms: _328  and  _331
REMARK  136  A    between atoms: _331  and  _332
REMARK  137  A    between atoms: _337  and  _339
REMARK  138  A    between atoms: _339  and  _340
REMARK  139  A    between atoms: _339  and  _342
REMARK  140  A    between atoms: _342  and  _343
REMARK  141  A    between atoms: _343  and  _344
REMARK  142  A    between atoms: _347  and  _349
REMARK  143  A    between atoms: _349  and  _350
REMARK  144  A    between atoms: _349  and  _352
REMARK  145  A    between atoms: _352  and  _353
REMARK  146  A    between atoms: _355  and  _357
REMARK  147  A    between atoms: _357  and  _358
REMARK  148  A    between atoms: _357  and  _360
REMARK  149  A    between atoms: _360  and  _361
REMARK  150  A    between atoms: _367  and  _369
REMARK  151  A    between atoms: _369  and  _370
REMARK  152  A    between atoms: _369  and  _372
REMARK  153  A    between atoms: _372  and  _373
REMARK  154  A    between atoms: _375  and  _377
REMARK  155  A    between atoms: _377  and  _378
REMARK  156  A    between atoms: _377  and  _380
REMARK  157  A    between atoms: _380  and  _381
REMARK  158  A    between atoms: _391  and  _393
REMARK  159  A    between atoms: _393  and  _394
REMARK  160  A    between atoms: _393  and  _396
REMARK  161  A    between atoms: _396  and  _397
REMARK  162  A    between atoms: _400  and  _402
REMARK  163  A    between atoms: _402  and  _403
REMARK  164  A    between atoms: _402  and  _405
REMARK  165  A    between atoms: _407  and  _409
REMARK  166  A    between atoms: _409  and  _410
REMARK  167  A    between atoms: _409  and  _412
REMARK  168  A    between atoms: _412  and  _413
REMARK  169  A    between atoms: _418  and  _419
REMARK  170  A    between atoms: _421  and  _423
REMARK  171  A    between atoms: _423  and  _424
REMARK  172  A    between atoms: _423  and  _426
REMARK  173  A    between atoms: _426  and  _427
REMARK  174  A    between atoms: _427  and  _428
REMARK  175  A    between atoms: _428  and  _429
REMARK  176  A    between atoms: _429  and  _430
REMARK  177  A    between atoms: _434  and  _436
REMARK  178  A    between atoms: _436  and  _437
REMARK  179  A    between atoms: _436  and  _439
REMARK  180  A    between atoms: _439  and  _440
REMARK  181  A    between atoms: _445  and  _446
REMARK  182  A    between atoms: _448  and  _450
REMARK  183  A    between atoms: _450  and  _451
REMARK  184  A    between atoms: _450  and  _453
REMARK  185  A    between atoms: _453  and  _454
REMARK  186  A    between atoms: _454  and  _455
REMARK  187  A    between atoms: _455  and  _456
REMARK  188  A    between atoms: _465  and  _467
REMARK  189  A    between atoms: _467  and  _468
REMARK  190  A    between atoms: _467  and  _470
REMARK  191  A    between atoms: _473  and  _475
REMARK  192  A    between atoms: _475  and  _476
REMARK  193  A    between atoms: _475  and  _478
REMARK  194  A    between atoms: _478  and  _479
REMARK  195  A    between atoms: _482  and  _484
REMARK  196  A    between atoms: _484  and  _485
REMARK  197  A    between atoms: _484  and  _487
REMARK  198  A    between atoms: _490  and  _492
REMARK  199  A    between atoms: _492  and  _493
REMARK  200  A    between atoms: _492  and  _495
REMARK  201  A    between atoms: _495  and  _496
REMARK  202  A    between atoms: _499  and  _501
REMARK  203  A    between atoms: _501  and  _502
REMARK  204  A    between atoms: _505  and  _507
REMARK  205  A    between atoms: _507  and  _508
REMARK  206  A    between atoms: _510  and  _512
REMARK  207  A    between atoms: _512  and  _513
REMARK  208  A    between atoms: _512  and  _515
REMARK  209  A    between atoms: _515  and  _516
REMARK  210  A    between atoms: _521  and  _523
REMARK  211  A    between atoms: _523  and  _524
REMARK  212  A    between atoms: _523  and  _526
REMARK  213  A    between atoms: _526  and  _527
REMARK  214  A    between atoms: _530  and  _532
REMARK  215  A    between atoms: _532  and  _533
REMARK  216  A    between atoms: _532  and  _535
REMARK  217  A    between atoms: _535  and  _536
REMARK  218  A    between atoms: _539  and  _541
REMARK  219  A    between atoms: _541  and  _542
REMARK  220  A    between atoms: _541  and  _544
REMARK  221  A    between atoms: _544  and  _545
REMARK  222  A    between atoms: _548  and  _550
REMARK  223  A    between atoms: _550  and  _551
REMARK  224  A    between atoms: _550  and  _553
REMARK  225  A    between atoms: _553  and  _554
REMARK  226  A    between atoms: _554  and  _555
REMARK  227  A    between atoms: _560  and  _562
REMARK  228  A    between atoms: _562  and  _563
REMARK  229  A    between atoms: _562  and  _565
REMARK  230  A    between atoms: _565  and  _566
REMARK  231  A    between atoms: _569  and  _571
REMARK  232  A    between atoms: _571  and  _572
REMARK  233  A    between atoms: _571  and  _574
REMARK  234  A    between atoms: _574  and  _575
REMARK  235  A    between atoms: _580  and  _582
REMARK  236  A    between atoms: _582  and  _583
REMARK  237  A    between atoms: _582  and  _585
REMARK  238  A    between atoms: _585  and  _586
REMARK  239  A    between atoms: _588  and  _590
REMARK  240  A    between atoms: _590  and  _591
REMARK  241  A    between atoms: _590  and  _593
REMARK  242  A    between atoms: _593  and  _594
REMARK  243  A    between atoms: _594  and  _595
REMARK  244  A    between atoms: _600  and  _602
REMARK  245  A    between atoms: _602  and  _603
REMARK  246  A    between atoms: _602  and  _605
REMARK  247  A    between atoms: _605  and  _606
REMARK  248  A    between atoms: _611  and  _612
REMARK  249  A    between atoms: _614  and  _616
REMARK  250  A    between atoms: _616  and  _617
REMARK  251  A    between atoms: _616  and  _619
REMARK  252  A    between atoms: _619  and  _620
REMARK  253  A    between atoms: _620  and  _621
REMARK  254  A    between atoms: _621  and  _622
REMARK  255  A    between atoms: _631  and  _633
REMARK  256  A    between atoms: _633  and  _634
REMARK  257  A    between atoms: _633  and  _636
REMARK  258  A    between atoms: _636  and  _637
REMARK  259  A    between atoms: _640  and  _642
REMARK  260  A    between atoms: _642  and  _643
REMARK  261  A    between atoms: _642  and  _645
REMARK  262  A    between atoms: _647  and  _649
REMARK  263  A    between atoms: _649  and  _650
REMARK  264  A    between atoms: _649  and  _652
REMARK  265  A    between atoms: _652  and  _653
REMARK  266  A    between atoms: _653  and  _654
REMARK  267  A    between atoms: _654  and  _655
REMARK  268  A    between atoms: _655  and  _656
REMARK  269  A    between atoms: _660  and  _662
REMARK  270  A    between atoms: _662  and  _663
REMARK  271  A    between atoms: _662  and  _665
REMARK  272  A    between atoms: _665  and  _666
REMARK  273  A    between atoms: _669  and  _671
REMARK  274  A    between atoms: _671  and  _672
REMARK  275  A    between atoms: _671  and  _674
REMARK  276  A    between atoms: _674  and  _675
REMARK  277  A    between atoms: _678  and  _680
REMARK  278  A    between atoms: _680  and  _681
REMARK  279  A    between atoms: _680  and  _683
REMARK  280  A    between atoms: _686  and  _688
REMARK  281  A    between atoms: _688  and  _689
REMARK  282  A    between atoms: _688  and  _691
REMARK  283  A    between atoms: _691  and  _692
REMARK  284  A    between atoms: _695  and  _697
REMARK  285  A    between atoms: _697  and  _698
REMARK  286  A    between atoms: _697  and  _700
REMARK  287  A    between atoms: _700  and  _701
REMARK                            x       y       z     vdW  Elec       q    Type
REMARK                         _______ _______ _______ _____ _____    ______ ____
ROOT
ATOM      1  CB  GLN A   1      20.545  26.818  37.782  0.00  0.00    +0.035 C 
ENDROOT
BRANCH   1   2
ATOM      2  CA  GLN A   1      20.951  27.021  39.254  0.00  0.00    +0.134 C 
BRANCH   2   3
ATOM      3  N   GLN A   1      20.242  28.159  39.854  0.00  0.00    -0.239 NA
ATOM      4  H   GLN A   1      19.580  28.716  39.277  0.00  0.00    +0.142 HD
ENDBRANCH   2   3
BRANCH   2   5
ATOM      5  C   GLN A   1      22.463  27.195  39.337  0.00  0.00    +0.224 C 
ATOM      6  O   GLN A   1      23.191  26.272  39.698  0.00  0.00    -0.287 OA
ENDBRANCH   2   5
ENDBRANCH   1   2
BRANCH   1   7
ATOM      7  CG  GLN A   1      19.109  26.328  37.542  0.00  0.00    +0.087 C 
BRANCH   7   8
ATOM      8  CD  GLN A   1      18.762  25.052  38.304  0.00  0.00    +0.219 C 
ATOM      9  NE2 GLN A   1      17.539  24.987  38.820  0.00  0.00    -0.329 N 
ATOM     10 HE21 GLN A   1      17.235  24.134  39.331  0.00  0.00    +0.145 HD
ATOM     11 HE22 GLN A   1      16.886  25.790  38.713  0.00  0.00    +0.145 HD
ATOM     12  OE1 GLN A   1      19.574  24.132  38.401  0.00  0.00    -0.275 OA
ENDBRANCH   7   8
ENDBRANCH   1   7
TORSDOF 5
REMARK  Name = ../refined-set-2016/1ie9/1ie9_pocket.pdb
REMARK  287 active torsions:
REMARK  status: ('A' for Active; 'I' for Inactive)
REMARK    1  A    between atoms: _1  and  _3
REMARK    2  A    between atoms: _3  and  _4
REMARK    3  A    between atoms: _3  and  _6
REMARK    4  A    between atoms: _6  and  _7
REMARK    5  A    between atoms: _10  and  _12
REMARK    6  A    between atoms: _12  and  _13
REMARK    7  A    between atoms: _12  and  _15
REMARK    8  A    between atoms: _15  and  _16
REMARK    9  A    between atoms: _21  and  _22
REMARK   10  A    between atoms: _24  and  _26
REMARK   11  A    between atoms: _26  and  _27
REMARK   12  A    between atoms: _26  and  _29
REMARK   13  A    between atoms: _29  and  _30
REMARK   14  A    between atoms: _34  and  _35
REMARK   15  A    between atoms: _40  and  _42
REMARK   16  A    between atoms: _42  and  _43
REMARK   17  A    between atoms: _42  and  _45
REMARK   18  A    between atoms: _45  and  _46
REMARK   19  A    between atoms: _51  and  _52
REMARK   20  A    between atoms: _54  and  _56
REMARK   21  A    between atoms: _56  and  _57
REMARK   22  A    between atoms: _56  and  _59
REMARK   23  A    between atoms: _59  and  _60
REMARK   24  A    between atoms: _66  and  _68
REMARK   25  A    between atoms: _68  and  _69
REMARK   26  A    between atoms: _68  and  _71
REMARK   27  A    between atoms: _71  and  _72
REMARK   28  A    between atoms: _78  and  _80
REMARK   29  A    between atoms: _80  and  _81
REMARK   30  A    between atoms: _80  and  _83
REMARK   31  A    between atoms: _83  and  _84
REMARK   32  A    between atoms: _84  and  _85
REMARK   33  A    between atoms: _85  and  _86
REMARK   34  A    between atoms: _95  and  _97
REMARK   35  A    between atoms: _97  and  _98
REMARK   36  A    between atoms: _97  and  _100
REMARK   37  A    between atoms: _100  and  _101
REMARK   38  A    between atoms: _104  and  _106
REMARK   39  A    between atoms: _106  and  _107
REMARK   40  A    between atoms: _106  and  _109
REMARK   41  A    between atoms: _109  and  _110
REMARK   42  A    between atoms: _110  and  _111
REMARK   43  A    between atoms: _113  and  _115
REMARK   44  A    between atoms: _115  and  _116
REMARK   45  A    between atoms: _115  and  _118
REMARK   46  A    between atoms: _118  and  _119
REMARK   47  A    between atoms: _123  and  _124
REMARK   48  A    between atoms: _129  and  _131
REMARK   49  A    between atoms: _131  and  _132
REMARK   50  A    between atoms: _131  and  _134
REMARK   51  A    between atoms: _134  and  _135
REMARK   52  A    between atoms: _140  and  _142
REMARK   53  A    between atoms: _142  and  _143
REMARK   54  A    between atoms: _142  and  _145
REMARK   55  A    between atoms: _145  and  _146
REMARK   56  A    between atoms: _149  and  _151
REMARK   57  A    between atoms: _151  and  _152
REMARK   58  A    between atoms: _155  and  _157
REMARK   59  A    between atoms: _157  and  _158
REMARK   60  A    between atoms: _157  and  _160
REMARK   61  A    between atoms: _160  and  _161
REMARK   62  A    between atoms: _164  and  _166
REMARK   63  A    between atoms: _166  and  _167
REMARK   64  A    between atoms: _166  and  _169
REMARK   65  A    between atoms: _169  and  _170
REMARK   66  A    between atoms: _173  and  _175
REMARK   67  A    between atoms: _175  and  _176
REMARK   68  A    between atoms: _175  and  _178
REMARK   69  A    between atoms: _181  and  _183
REMARK   70  A    between atoms: _183  and  _184
REMARK   71  A    between atoms: _183  and  _186
REMARK   72  A    between atoms: _186  and  _187
REMARK   73  A    between atoms: _189  and  _191
REMARK   74  A    between atoms: _191  and  _192
REMARK   75  A    between atoms: _191  and  _194
REMARK   76  A    between atoms: _194  and  _195
REMARK   77  A    between atoms: _200  and  _201
REMARK   78  A    between atoms: _203  and  _205
REMARK   79  A    between atoms: _205  and  _206
REMARK   80  A    between atoms: _205  and  _208
REMARK   81  A    between atoms: _208  and  _209
REMARK   82  A    between atoms: _211  and  _213
REMARK   83  A    between atoms: _213  and  _214
REMARK   84  A    between atoms: _213  and  _216
REMARK   85  A    between atoms: _216  and  _217
REMARK   86  A    between atoms: _220  and  _222
REMARK   87  A    between atoms: _222  and  _223
REMARK   88  A    between atoms: _222  and  _225
REMARK   89  A    between atoms: _225  and  _226
REMARK   90  A    between atoms: _226  and  _227
REMARK   91  A    between atoms: _227  and  _228
REMARK   92  A    between atoms: _228  and  _229
REMARK   93  A    between atoms: _233  and  _235
REMARK   94  A    between atoms: _235  and  _236
REMARK   95  A    between atoms: _235  and  _238
REMARK   96  A    between atoms: _241  and  _243
REMARK   97  A    between atoms: _243  and  _244
REMARK   98  A    between atoms: _247  and  _249
REMARK   99  A    between atoms: _249  and  _250
REMARK  100  A    between atoms: _249  and  _252
REMARK  101  A    between atoms: _252  and  _253
REMARK  102  A    between atoms: _256  and  _258
REMARK  103  A    between atoms: _258  and  _259
REMARK  104  A    between atoms: _258  and  _261
REMARK  105  A    between atoms: _261  and  _262
REMARK  106  A    between atoms: _262  and  _263
REMARK  107  A    between atoms: _266  and  _268
REMARK  108  A    between atoms: _268  and  _269
REMARK  109  A    between atoms: _268  and  _271
REMARK  110  A    between atoms: _274  and  _276
REMARK  111  A    between atoms: _276  and  _277
REMARK  112  A    between atoms: _276  and  _279
REMARK  113  A    between atoms: _279  and  _280
REMARK  114  A    between atoms: _283  and  _285
REMARK  115  A    between atoms: _285  and  _286
REMARK  116  A    between atoms: _285  and  _288
REMARK  117  A    between atoms: _288  and  _289
REMARK  118  A    between atoms: _289  and  _290
REMARK  119  A    between atoms: _292  and  _294
REMARK  120  A    between atoms: _294  and  _295
REMARK  121  A    between atoms: _294  and  _297
REMARK  122  A    between atoms: _297  and  _298
REMARK  123  A    between atoms: _301  and  _303
REMARK  124  A    between atoms: _303  and  _304
REMARK  125  A    between atoms: _303  and  _306
REMARK  126  A    between atoms: _306  and  _307
REMARK  127  A    between atoms: _307  and  _308
REMARK  128  A    between atoms: _308  and  _309
REMARK  129  A    between atoms: _318  and  _320
REMARK  130  A    between atoms: _320  and  _321
REMARK  131  A    between atoms: _320  and  _323
REMARK  132  A    between atoms: _323  and  _324
REMARK  133  A    between atoms: _326  and  _328
REMARK  134  A    between atoms: _328  and  _329
REMARK  135  A    between atoms: _328  and  _331
REMARK  136  A    between atoms: _331  and  _332
REMARK  137  A    between atoms: _337  and  _339
REMARK  138  A    between atoms: _339  and  _340
REMARK  139  A    between atoms: _339  and  _342
REMARK  140  A    between atoms: _342  and  _343
REMARK  141  A    between atoms: _343  and  _344
REMARK  142  A    between atoms: _347  and  _349
REMARK  143  A    between atoms: _349  and  _350
REMARK  144  A    between atoms: _349  and  _352
REMARK  145  A    between atoms: _352  and  _353
REMARK  146  A    between atoms: _355  and  _357
REMARK  147  A    between atoms: _357  and  _358
REMARK  148  A    between atoms: _357  and  _360
REMARK  149  A    between atoms: _360  and  _361
REMARK  150  A    between atoms: _367  and  _369
REMARK  151  A    between atoms: _369  and  _370
REMARK  152  A    between atoms: _369  and  _372
REMARK  153  A    between atoms: _372  and  _373
REMARK  154  A    between atoms: _375  and  _377
REMARK  155  A    between atoms: _377  and  _378
REMARK  156  A    between atoms: _377  and  _380
REMARK  157  A    between atoms: _380  and  _381
REMARK  158  A    between atoms: _391  and  _393
REMARK  159  A    between atoms: _393  and  _394
REMARK  160  A    between atoms: _393  and  _396
REMARK  161  A    between atoms: _396  and  _397
REMARK  162  A    between atoms: _400  and  _402
REMARK  163  A    between atoms: _402  and  _403
REMARK  164  A    between atoms: _402  and  _405
REMARK  165  A    between atoms: _407  and  _409
REMARK  166  A    between atoms: _409  and  _410
REMARK  167  A    between atoms: _409  and  _412
REMARK  168  A    between atoms: _412  and  _413
REMARK  169  A    between atoms: _418  and  _419
REMARK  170  A    between atoms: _421  and  _423
REMARK  171  A    between atoms: _423  and  _424
REMARK  172  A    between atoms: _423  and  _426
REMARK  173  A    between atoms: _426  and  _427
REMARK  174  A    between atoms: _427  and  _428
REMARK  175  A    between atoms: _428  and  _429
REMARK  176  A    between atoms: _429  and  _430
REMARK  177  A    between atoms: _434  and  _436
REMARK  178  A    between atoms: _436  and  _437
REMARK  179  A    between atoms: _436  and  _439
REMARK  180  A    between atoms: _439  and  _440
REMARK  181  A    between atoms: _445  and  _446
REMARK  182  A    between atoms: _448  and  _450
REMARK  183  A    between atoms: _450  and  _451
REMARK  184  A    between atoms: _450  and  _453
REMARK  185  A    between atoms: _453  and  _454
REMARK  186  A    between atoms: _454  and  _455
REMARK  187  A    between atoms: _455  and  _456
REMARK  188  A    between atoms: _465  and  _467
REMARK  189  A    between atoms: _467  and  _468
REMARK  190  A    between atoms: _467  and  _470
REMARK  191  A    between atoms: _473  and  _475
REMARK  192  A    between atoms: _475  and  _476
REMARK  193  A    between atoms: _475  and  _478
REMARK  194  A    between atoms: _478  and  _479
REMARK  195  A    between atoms: _482  and  _484
REMARK  196  A    between atoms: _484  and  _485
REMARK  197  A    between atoms: _484  and  _487
REMARK  198  A    between atoms: _490  and  _492
REMARK  199  A    between atoms: _492  and  _493
REMARK  200  A    between atoms: _492  and  _495
REMARK  201  A    between atoms: _495  and  _496
REMARK  202  A    between atoms: _499  and  _501
REMARK  203  A    between atoms: _501  and  _502
REMARK  204  A    between atoms: _505  and  _507
REMARK  205  A    between atoms: _507  and  _508
REMARK  206  A    between atoms: _510  and  _512
REMARK  207  A    between atoms: _512  and  _513
REMARK  208  A    between atoms: _512  and  _515
REMARK  209  A    between atoms: _515  and  _516
REMARK  210  A    between atoms: _521  and  _523
REMARK  211  A    between atoms: _523  and  _524
REMARK  212  A    between atoms: _523  and  _526
REMARK  213  A    between atoms: _526  and  _527
REMARK  214  A    between atoms: _530  and  _532
REMARK  215  A    between atoms: _532  and  _533
REMARK  216  A    between atoms: _532  and  _535
REMARK  217  A    between atoms: _535  and  _536
REMARK  218  A    between atoms: _539  and  _541
REMARK  219  A    between atoms: _541  and  _542
REMARK  220  A    between atoms: _541  and  _544
REMARK  221  A    between atoms: _544  and  _545
REMARK  222  A    between atoms: _548  and  _550
REMARK  223  A    between atoms: _550  and  _551
REMARK  224  A    between atoms: _550  and  _553
REMARK  225  A    between atoms: _553  and  _554
REMARK  226  A    between atoms: _554  and  _555
REMARK  227  A    between atoms: _560  and  _562
REMARK  228  A    between atoms: _562  and  _563
REMARK  229  A    between atoms: _562  and  _565
REMARK  230  A    between atoms: _565  and  _566
REMARK  231  A    between atoms: _569  and  _571
REMARK  232  A    between atoms: _571  and  _572
REMARK  233  A    between atoms: _571  and  _574
REMARK  234  A    between atoms: _574  and  _575
REMARK  235  A    between atoms: _580  and  _582
REMARK  236  A    between atoms: _582  and  _583
REMARK  237  A    between atoms: _582  and  _585
REMARK  238  A    between atoms: _585  and  _586
REMARK  239  A    between atoms: _588  and  _590
REMARK  240  A    between atoms: _590  and  _591
REMARK  241  A    between atoms: _590  and  _593
REMARK  242  A    between atoms: _593  and  _594
REMARK  243  A    between atoms: _594  and  _595
REMARK  244  A    between atoms: _600  and  _602
REMARK  245  A    between atoms: _602  and  _603
REMARK  246  A    between atoms: _602  and  _605
REMARK  247  A    between atoms: _605  and  _606
REMARK  248  A    between atoms: _611  and  _612
REMARK  249  A    between atoms: _614  and  _616
REMARK  250  A    between atoms: _616  and  _617
REMARK  251  A    between atoms: _616  and  _619
REMARK  252  A    between atoms: _619  and  _620
REMARK  253  A    between atoms: _620  and  _621
REMARK  254  A    between atoms: _621  and  _622
REMARK  255  A    between atoms: _631  and  _633
REMARK  256  A    between atoms: _633  and  _634
REMARK  257  A    between atoms: _633  and  _636
REMARK  258  A    between atoms: _636  and  _637
REMARK  259  A    between atoms: _640  and  _642
REMARK  260  A    between atoms: _642  and  _643
REMARK  261  A    between atoms: _642  and  _645
REMARK  262  A    between atoms: _647  and  _649
REMARK  263  A    between atoms: _649  and  _650
REMARK  264  A    between atoms: _649  and  _652
REMARK  265  A    between atoms: _652  and  _653
REMARK  266  A    between atoms: _653  and  _654
REMARK  267  A    between atoms: _654  and  _655
REMARK  268  A    between atoms: _655  and  _656
REMARK  269  A    between atoms: _660  and  _662
REMARK  270  A    between atoms: _662  and  _663
REMARK  271  A    between atoms: _662  and  _665
REMARK  272  A    between atoms: _665  and  _666
REMARK  273  A    between atoms: _669  and  _671
REMARK  274  A    between atoms: _671  and  _672
REMARK  275  A    between atoms: _671  and  _674
REMARK  276  A    between atoms: _674  and  _675
REMARK  277  A    between atoms: _678  and  _680
REMARK  278  A    between atoms: _680  and  _681
REMARK  279  A    between atoms: _680  and  _683
REMARK  280  A    between atoms: _686  and  _688
REMARK  281  A    between atoms: _688  and  _689
REMARK  282  A    between atoms: _688  and  _691
REMARK  283  A    between atoms: _691  and  _692
REMARK  284  A    between atoms: _695  and  _697
REMARK  285  A    between atoms: _697  and  _698
REMARK  286  A    between atoms: _697  and  _700
REMARK  287  A    between atoms: _700  and  _701
REMARK                            x       y       z     vdW  Elec       q    Type
REMARK                         _______ _______ _______ _____ _____    ______ ____
ROOT
ATOM      1  CA  LEU A   1      10.879  30.599  43.403  0.00  0.00    +0.133 C 
ENDROOT
BRANCH   1   2
ATOM      2  N   LEU A   1      11.115  31.005  44.789  0.00  0.00    -0.239 NA
ATOM      3  H   LEU A   1      11.879  30.551  45.330  0.00  0.00    +0.142 HD
ENDBRANCH   1   2
BRANCH   1   4
ATOM      4  C   LEU A   1       9.514  29.928  43.321  0.00  0.00    +0.224 C 
ATOM      5  O   LEU A   1       8.793  30.133  42.353  0.00  0.00    -0.287 OA
ENDBRANCH   1   4
BRANCH   1   6
ATOM      6  CB  LEU A   1      12.012  29.643  42.945  0.00  0.00    +0.025 C 
BRANCH   6   7
ATOM      7  CG  LEU A   1      13.342  30.411  42.744  0.00  0.00    +0.002 C 
ATOM      8  CD2 LEU A   1      14.496  29.423  42.619  0.00  0.00    +0.000 C 
ATOM      9  CD1 LEU A   1      13.292  31.311  41.511  0.00  0.00    +0.000 C 
ENDBRANCH   6   7
ENDBRANCH   1   6
TORSDOF 4
REMARK  Name = ../refined-set-2016/1ie9/1ie9_pocket.pdb
REMARK  287 active torsions:
REMARK  status: ('A' for Active; 'I' for Inactive)
REMARK    1  A    between atoms: _1  and  _3
REMARK    2  A    between atoms: _3  and  _4
REMARK    3  A    between atoms: _3  and  _6
REMARK    4  A    between atoms: _6  and  _7
REMARK    5  A    between atoms: _10  and  _12
REMARK    6  A    between atoms: _12  and  _13
REMARK    7  A    between atoms: _12  and  _15
REMARK    8  A    between atoms: _15  and  _16
REMARK    9  A    between atoms: _21  and  _22
REMARK   10  A    between atoms: _24  and  _26
REMARK   11  A    between atoms: _26  and  _27
REMARK   12  A    between atoms: _26  and  _29
REMARK   13  A    between atoms: _29  and  _30
REMARK   14  A    between atoms: _34  and  _35
REMARK   15  A    between atoms: _40  and  _42
REMARK   16  A    between atoms: _42  and  _43
REMARK   17  A    between atoms: _42  and  _45
REMARK   18  A    between atoms: _45  and  _46
REMARK   19  A    between atoms: _51  and  _52
REMARK   20  A    between atoms: _54  and  _56
REMARK   21  A    between atoms: _56  and  _57
REMARK   22  A    between atoms: _56  and  _59
REMARK   23  A    between atoms: _59  and  _60
REMARK   24  A    between atoms: _66  and  _68
REMARK   25  A    between atoms: _68  and  _69
REMARK   26  A    between atoms: _68  and  _71
REMARK   27  A    between atoms: _71  and  _72
REMARK   28  A    between atoms: _78  and  _80
REMARK   29  A    between atoms: _80  and  _81
REMARK   30  A    between atoms: _80  and  _83
REMARK   31  A    between atoms: _83  and  _84
REMARK   32  A    between atoms: _84  and  _85
REMARK   33  A    between atoms: _85  and  _86
REMARK   34  A    between atoms: _95  and  _97
REMARK   35  A    between atoms: _97  and  _98
REMARK   36  A    between atoms: _97  and  _100
REMARK   37  A    between atoms: _100  and  _101
REMARK   38  A    between atoms: _104  and  _106
REMARK   39  A    between atoms: _106  and  _107
REMARK   40  A    between atoms: _106  and  _109
REMARK   41  A    between atoms: _109  and  _110
REMARK   42  A    between atoms: _110  and  _111
REMARK   43  A    between atoms: _113  and  _115
REMARK   44  A    between atoms: _115  and  _116
REMARK   45  A    between atoms: _115  and  _118
REMARK   46  A    between atoms: _118  and  _119
REMARK   47  A    between atoms: _123  and  _124
REMARK   48  A    between atoms: _129  and  _131
REMARK   49  A    between atoms: _131  and  _132
REMARK   50  A    between atoms: _131  and  _134
REMARK   51  A    between atoms: _134  and  _135
REMARK   52  A    between atoms: _140  and  _142
REMARK   53  A    between atoms: _142  and  _143
REMARK   54  A    between atoms: _142  and  _145
REMARK   55  A    between atoms: _145  and  _146
REMARK   56  A    between atoms: _149  and  _151
REMARK   57  A    between atoms: _151  and  _152
REMARK   58  A    between atoms: _155  and  _157
REMARK   59  A    between atoms: _157  and  _158
REMARK   60  A    between atoms: _157  and  _160
REMARK   61  A    between atoms: _160  and  _161
REMARK   62  A    between atoms: _164  and  _166
REMARK   63  A    between atoms: _166  and  _167
REMARK   64  A    between atoms: _166  and  _169
REMARK   65  A    between atoms: _169  and  _170
REMARK   66  A    between atoms: _173  and  _175
REMARK   67  A    between atoms: _175  and  _176
REMARK   68  A    between atoms: _175  and  _178
REMARK   69  A    between atoms: _181  and  _183
REMARK   70  A    between atoms: _183  and  _184
REMARK   71  A    between atoms: _183  and  _186
REMARK   72  A    between atoms: _186  and  _187
REMARK   73  A    between atoms: _189  and  _191
REMARK   74  A    between atoms: _191  and  _192
REMARK   75  A    between atoms: _191  and  _194
REMARK   76  A    between atoms: _194  and  _195
REMARK   77  A    between atoms: _200  and  _201
REMARK   78  A    between atoms: _203  and  _205
REMARK   79  A    between atoms: _205  and  _206
REMARK   80  A    between atoms: _205  and  _208
REMARK   81  A    between atoms: _208  and  _209
REMARK   82  A    between atoms: _211  and  _213
REMARK   83  A    between atoms: _213  and  _214
REMARK   84  A    between atoms: _213  and  _216
REMARK   85  A    between atoms: _216  and  _217
REMARK   86  A    between atoms: _220  and  _222
REMARK   87  A    between atoms: _222  and  _223
REMARK   88  A    between atoms: _222  and  _225
REMARK   89  A    between atoms: _225  and  _226
REMARK   90  A    between atoms: _226  and  _227
REMARK   91  A    between atoms: _227  and  _228
REMARK   92  A    between atoms: _228  and  _229
REMARK   93  A    between atoms: _233  and  _235
REMARK   94  A    between atoms: _235  and  _236
REMARK   95  A    between atoms: _235  and  _238
REMARK   96  A    between atoms: _241  and  _243
REMARK   97  A    between atoms: _243  and  _244
REMARK   98  A    between atoms: _247  and  _249
REMARK   99  A    between atoms: _249  and  _250
REMARK  100  A    between atoms: _249  and  _252
REMARK  101  A    between atoms: _252  and  _253
REMARK  102  A    between atoms: _256  and  _258
REMARK  103  A    between atoms: _258  and  _259
REMARK  104  A    between atoms: _258  and  _261
REMARK  105  A    between atoms: _261  and  _262
REMARK  106  A    between atoms: _262  and  _263
REMARK  107  A    between atoms: _266  and  _268
REMARK  108  A    between atoms: _268  and  _269
REMARK  109  A    between atoms: _268  and  _271
REMARK  110  A    between atoms: _274  and  _276
REMARK  111  A    between atoms: _276  and  _277
REMARK  112  A    between atoms: _276  and  _279
REMARK  113  A    between atoms: _279  and  _280
REMARK  114  A    between atoms: _283  and  _285
REMARK  115  A    between atoms: _285  and  _286
REMARK  116  A    between atoms: _285  and  _288
REMARK  117  A    between atoms: _288  and  _289
REMARK  118  A    between atoms: _289  and  _290
REMARK  119  A    between atoms: _292  and  _294
REMARK  120  A    between atoms: _294  and  _295
REMARK  121  A    between atoms: _294  and  _297
REMARK  122  A    between atoms: _297  and  _298
REMARK  123  A    between atoms: _301  and  _303
REMARK  124  A    between atoms: _303  and  _304
REMARK  125  A    between atoms: _303  and  _306
REMARK  126  A    between atoms: _306  and  _307
REMARK  127  A    between atoms: _307  and  _308
REMARK  128  A    between atoms: _308  and  _309
REMARK  129  A    between atoms: _318  and  _320
REMARK  130  A    between atoms: _320  and  _321
REMARK  131  A    between atoms: _320  and  _323
REMARK  132  A    between atoms: _323  and  _324
REMARK  133  A    between atoms: _326  and  _328
REMARK  134  A    between atoms: _328  and  _329
REMARK  135  A    between atoms: _328  and  _331
REMARK  136  A    between atoms: _331  and  _332
REMARK  137  A    between atoms: _337  and  _339
REMARK  138  A    between atoms: _339  and  _340
REMARK  139  A    between atoms: _339  and  _342
REMARK  140  A    between atoms: _342  and  _343
REMARK  141  A    between atoms: _343  and  _344
REMARK  142  A    between atoms: _347  and  _349
REMARK  143  A    between atoms: _349  and  _350
REMARK  144  A    between atoms: _349  and  _352
REMARK  145  A    between atoms: _352  and  _353
REMARK  146  A    between atoms: _355  and  _357
REMARK  147  A    between atoms: _357  and  _358
REMARK  148  A    between atoms: _357  and  _360
REMARK  149  A    between atoms: _360  and  _361
REMARK  150  A    between atoms: _367  and  _369
REMARK  151  A    between atoms: _369  and  _370
REMARK  152  A    between atoms: _369  and  _372
REMARK  153  A    between atoms: _372  and  _373
REMARK  154  A    between atoms: _375  and  _377
REMARK  155  A    between atoms: _377  and  _378
REMARK  156  A    between atoms: _377  and  _380
REMARK  157  A    between atoms: _380  and  _381
REMARK  158  A    between atoms: _391  and  _393
REMARK  159  A    between atoms: _393  and  _394
REMARK  160  A    between atoms: _393  and  _396
REMARK  161  A    between atoms: _396  and  _397
REMARK  162  A    between atoms: _400  and  _402
REMARK  163  A    between atoms: _402  and  _403
REMARK  164  A    between atoms: _402  and  _405
REMARK  165  A    between atoms: _407  and  _409
REMARK  166  A    between atoms: _409  and  _410
REMARK  167  A    between atoms: _409  and  _412
REMARK  168  A    between atoms: _412  and  _413
REMARK  169  A    between atoms: _418  and  _419
REMARK  170  A    between atoms: _421  and  _423
REMARK  171  A    between atoms: _423  and  _424
REMARK  172  A    between atoms: _423  and  _426
REMARK  173  A    between atoms: _426  and  _427
REMARK  174  A    between atoms: _427  and  _428
REMARK  175  A    between atoms: _428  and  _429
REMARK  176  A    between atoms: _429  and  _430
REMARK  177  A    between atoms: _434  and  _436
REMARK  178  A    between atoms: _436  and  _437
REMARK  179  A    between atoms: _436  and  _439
REMARK  180  A    between atoms: _439  and  _440
REMARK  181  A    between atoms: _445  and  _446
REMARK  182  A    between atoms: _448  and  _450
REMARK  183  A    between atoms: _450  and  _451
REMARK  184  A    between atoms: _450  and  _453
REMARK  185  A    between atoms: _453  and  _454
REMARK  186  A    between atoms: _454  and  _455
REMARK  187  A    between atoms: _455  and  _456
REMARK  188  A    between atoms: _465  and  _467
REMARK  189  A    between atoms: _467  and  _468
REMARK  190  A    between atoms: _467  and  _470
REMARK  191  A    between atoms: _473  and  _475
REMARK  192  A    between atoms: _475  and  _476
REMARK  193  A    between atoms: _475  and  _478
REMARK  194  A    between atoms: _478  and  _479
REMARK  195  A    between atoms: _482  and  _484
REMARK  196  A    between atoms: _484  and  _485
REMARK  197  A    between atoms: _484  and  _487
REMARK  198  A    between atoms: _490  and  _492
REMARK  199  A    between atoms: _492  and  _493
REMARK  200  A    between atoms: _492  and  _495
REMARK  201  A    between atoms: _495  and  _496
REMARK  202  A    between atoms: _499  and  _501
REMARK  203  A    between atoms: _501  and  _502
REMARK  204  A    between atoms: _505  and  _507
REMARK  205  A    between atoms: _507  and  _508
REMARK  206  A    between atoms: _510  and  _512
REMARK  207  A    between atoms: _512  and  _513
REMARK  208  A    between atoms: _512  and  _515
REMARK  209  A    between atoms: _515  and  _516
REMARK  210  A    between atoms: _521  and  _523
REMARK  211  A    between atoms: _523  and  _524
REMARK  212  A    between atoms: _523  and  _526
REMARK  213  A    between atoms: _526  and  _527
REMARK  214  A    between atoms: _530  and  _532
REMARK  215  A    between atoms: _532  and  _533
REMARK  216  A    between atoms: _532  and  _535
REMARK  217  A    between atoms: _535  and  _536
REMARK  218  A    between atoms: _539  and  _541
REMARK  219  A    between atoms: _541  and  _542
REMARK  220  A    between atoms: _541  and  _544
REMARK  221  A    between atoms: _544  and  _545
REMARK  222  A    between atoms: _548  and  _550
REMARK  223  A    between atoms: _550  and  _551
REMARK  224  A    between atoms: _550  and  _553
REMARK  225  A    between atoms: _553  and  _554
REMARK  226  A    between atoms: _554  and  _555
REMARK  227  A    between atoms: _560  and  _562
REMARK  228  A    between atoms: _562  and  _563
REMARK  229  A    between atoms: _562  and  _565
REMARK  230  A    between atoms: _565  and  _566
REMARK  231  A    between atoms: _569  and  _571
REMARK  232  A    between atoms: _571  and  _572
REMARK  233  A    between atoms: _571  and  _574
REMARK  234  A    between atoms: _574  and  _575
REMARK  235  A    between atoms: _580  and  _582
REMARK  236  A    between atoms: _582  and  _583
REMARK  237  A    between atoms: _582  and  _585
REMARK  238  A    between atoms: _585  and  _586
REMARK  239  A    between atoms: _588  and  _590
REMARK  240  A    between atoms: _590  and  _591
REMARK  241  A    between atoms: _590  and  _593
REMARK  242  A    between atoms: _593  and  _594
REMARK  243  A    between atoms: _594  and  _595
REMARK  244  A    between atoms: _600  and  _602
REMARK  245  A    between atoms: _602  and  _603
REMARK  246  A    between atoms: _602  and  _605
REMARK  247  A    between atoms: _605  and  _606
REMARK  248  A    between atoms: _611  and  _612
REMARK  249  A    between atoms: _614  and  _616
REMARK  250  A    between atoms: _616  and  _617
REMARK  251  A    between atoms: _616  and  _619
REMARK  252  A    between atoms: _619  and  _620
REMARK  253  A    between atoms: _620  and  _621
REMARK  254  A    between atoms: _621  and  _622
REMARK  255  A    between atoms: _631  and  _633
REMARK  256  A    between atoms: _633  and  _634
REMARK  257  A    between atoms: _633  and  _636
REMARK  258  A    between atoms: _636  and  _637
REMARK  259  A    between atoms: _640  and  _642
REMARK  260  A    between atoms: _642  and  _643
REMARK  261  A    between atoms: _642  and  _645
REMARK  262  A    between atoms: _647  and  _649
REMARK  263  A    between atoms: _649  and  _650
REMARK  264  A    between atoms: _649  and  _652
REMARK  265  A    between atoms: _652  and  _653
REMARK  266  A    between atoms: _653  and  _654
REMARK  267  A    between atoms: _654  and  _655
REMARK  268  A    between atoms: _655  and  _656
REMARK  269  A    between atoms: _660  and  _662
REMARK  270  A    between atoms: _662  and  _663
REMARK  271  A    between atoms: _662  and  _665
REMARK  272  A    between atoms: _665  and  _666
REMARK  273  A    between atoms: _669  and  _671
REMARK  274  A    between atoms: _671  and  _672
REMARK  275  A    between atoms: _671  and  _674
REMARK  276  A    between atoms: _674  and  _675
REMARK  277  A    between atoms: _678  and  _680
REMARK  278  A    between atoms: _680  and  _681
REMARK  279  A    between atoms: _680  and  _683
REMARK  280  A    between atoms: _686  and  _688
REMARK  281  A    between atoms: _688  and  _689
REMARK  282  A    between atoms: _688  and  _691
REMARK  283  A    between atoms: _691  and  _692
REMARK  284  A    between atoms: _695  and  _697
REMARK  285  A    between atoms: _697  and  _698
REMARK  286  A    between atoms: _697  and  _700
REMARK  287  A    between atoms: _700  and  _701
REMARK                            x       y       z     vdW  Elec       q    Type
REMARK                         _______ _______ _______ _____ _____    ______ ____
ROOT
ATOM      1  C   HIS A   1       4.552  30.088  40.054  0.00  0.00    +0.239 C 
ATOM      2  N   SER A   2       4.065  30.023  41.283  0.00  0.00    -0.296 N 
ATOM      3  H   SER A   2       4.713  30.054  42.096  0.00  0.00    +0.150 HD
ATOM      4  O   HIS A   1       3.828  30.086  39.059  0.00  0.00    -0.274 OA
ENDROOT
BRANCH   1   5
ATOM      5  CA  HIS A   1       6.069  30.204  39.934  0.00  0.00    +0.151 C 
BRANCH   5   6
ATOM      6  N   HIS A   1       6.578  31.133  40.941  0.00  0.00    -0.238 NA
ATOM      7  H   HIS A   1       7.264  30.810  41.653  0.00  0.00    +0.142 HD
ENDBRANCH   5   6
BRANCH   5   8
ATOM      8  CB  HIS A   1       6.717  28.820  40.092  0.00  0.00    +0.074 C 
BRANCH   8   9
ATOM      9  CG  HIS A   1       6.073  27.786  39.233  0.00  0.00    +0.082 A 
ATOM     10  ND1 HIS A   1       5.056  26.973  39.686  0.00  0.00    -0.227 NA
ATOM     11  CE1 HIS A   1       4.548  26.301  38.664  0.00  0.00    +0.199 A 
ATOM     12  NE2 HIS A   1       5.204  26.642  37.572  0.00  0.00    -0.221 NA
ATOM     13  CD2 HIS A   1       6.167  27.566  37.902  0.00  0.00    +0.115 A 
ENDBRANCH   8   9
ENDBRANCH   5   8
ENDBRANCH   1   5
BRANCH   2  14
ATOM     14  CA  SER A   2       2.637  29.909  41.508  0.00  0.00    +0.166 C 
BRANCH  14  15
ATOM     15  C   SER A   2       1.876  31.110  40.955  0.00  0.00    +0.229 C 
ATOM     16  O   SER A   2       0.826  30.957  40.310  0.00  0.00    -0.286 OA
ENDBRANCH  14  15
BRANCH  14  17
ATOM     17  CB  SER A   2       2.343  29.750  43.000  0.00  0.00    +0.165 C 
BRANCH  17  18
ATOM     18  OG  SER A   2       0.953  29.676  43.210  0.00  0.00    -0.380 OA
ATOM     19  H   SER A   2       0.587  28.897  42.720  0.00  0.00    +0.211 HD
ENDBRANCH  17  18
ENDBRANCH  14  17
ENDBRANCH   2  14
TORSDOF 8
REMARK  Name = ../refined-set-2016/1ie9/1ie9_pocket.pdb
REMARK  287 active torsions:
REMARK  status: ('A' for Active; 'I' for Inactive)
REMARK    1  A    between atoms: _1  and  _3
REMARK    2  A    between atoms: _3  and  _4
REMARK    3  A    between atoms: _3  and  _6
REMARK    4  A    between atoms: _6  and  _7
REMARK    5  A    between atoms: _10  and  _12
REMARK    6  A    between atoms: _12  and  _13
REMARK    7  A    between atoms: _12  and  _15
REMARK    8  A    between atoms: _15  and  _16
REMARK    9  A    between atoms: _21  and  _22
REMARK   10  A    between atoms: _24  and  _26
REMARK   11  A    between atoms: _26  and  _27
REMARK   12  A    between atoms: _26  and  _29
REMARK   13  A    between atoms: _29  and  _30
REMARK   14  A    between atoms: _34  and  _35
REMARK   15  A    between atoms: _40  and  _42
REMARK   16  A    between atoms: _42  and  _43
REMARK   17  A    between atoms: _42  and  _45
REMARK   18  A    between atoms: _45  and  _46
REMARK   19  A    between atoms: _51  and  _52
REMARK   20  A    between atoms: _54  and  _56
REMARK   21  A    between atoms: _56  and  _57
REMARK   22  A    between atoms: _56  and  _59
REMARK   23  A    between atoms: _59  and  _60
REMARK   24  A    between atoms: _66  and  _68
REMARK   25  A    between atoms: _68  and  _69
REMARK   26  A    between atoms: _68  and  _71
REMARK   27  A    between atoms: _71  and  _72
REMARK   28  A    between atoms: _78  and  _80
REMARK   29  A    between atoms: _80  and  _81
REMARK   30  A    between atoms: _80  and  _83
REMARK   31  A    between atoms: _83  and  _84
REMARK   32  A    between atoms: _84  and  _85
REMARK   33  A    between atoms: _85  and  _86
REMARK   34  A    between atoms: _95  and  _97
REMARK   35  A    between atoms: _97  and  _98
REMARK   36  A    between atoms: _97  and  _100
REMARK   37  A    between atoms: _100  and  _101
REMARK   38  A    between atoms: _104  and  _106
REMARK   39  A    between atoms: _106  and  _107
REMARK   40  A    between atoms: _106  and  _109
REMARK   41  A    between atoms: _109  and  _110
REMARK   42  A    between atoms: _110  and  _111
REMARK   43  A    between atoms: _113  and  _115
REMARK   44  A    between atoms: _115  and  _116
REMARK   45  A    between atoms: _115  and  _118
REMARK   46  A    between atoms: _118  and  _119
REMARK   47  A    between atoms: _123  and  _124
REMARK   48  A    between atoms: _129  and  _131
REMARK   49  A    between atoms: _131  and  _132
REMARK   50  A    between atoms: _131  and  _134
REMARK   51  A    between atoms: _134  and  _135
REMARK   52  A    between atoms: _140  and  _142
REMARK   53  A    between atoms: _142  and  _143
REMARK   54  A    between atoms: _142  and  _145
REMARK   55  A    between atoms: _145  and  _146
REMARK   56  A    between atoms: _149  and  _151
REMARK   57  A    between atoms: _151  and  _152
REMARK   58  A    between atoms: _155  and  _157
REMARK   59  A    between atoms: _157  and  _158
REMARK   60  A    between atoms: _157  and  _160
REMARK   61  A    between atoms: _160  and  _161
REMARK   62  A    between atoms: _164  and  _166
REMARK   63  A    between atoms: _166  and  _167
REMARK   64  A    between atoms: _166  and  _169
REMARK   65  A    between atoms: _169  and  _170
REMARK   66  A    between atoms: _173  and  _175
REMARK   67  A    between atoms: _175  and  _176
REMARK   68  A    between atoms: _175  and  _178
REMARK   69  A    between atoms: _181  and  _183
REMARK   70  A    between atoms: _183  and  _184
REMARK   71  A    between atoms: _183  and  _186
REMARK   72  A    between atoms: _186  and  _187
REMARK   73  A    between atoms: _189  and  _191
REMARK   74  A    between atoms: _191  and  _192
REMARK   75  A    between atoms: _191  and  _194
REMARK   76  A    between atoms: _194  and  _195
REMARK   77  A    between atoms: _200  and  _201
REMARK   78  A    between atoms: _203  and  _205
REMARK   79  A    between atoms: _205  and  _206
REMARK   80  A    between atoms: _205  and  _208
REMARK   81  A    between atoms: _208  and  _209
REMARK   82  A    between atoms: _211  and  _213
REMARK   83  A    between atoms: _213  and  _214
REMARK   84  A    between atoms: _213  and  _216
REMARK   85  A    between atoms: _216  and  _217
REMARK   86  A    between atoms: _220  and  _222
REMARK   87  A    between atoms: _222  and  _223
REMARK   88  A    between atoms: _222  and  _225
REMARK   89  A    between atoms: _225  and  _226
REMARK   90  A    between atoms: _226  and  _227
REMARK   91  A    between atoms: _227  and  _228
REMARK   92  A    between atoms: _228  and  _229
REMARK   93  A    between atoms: _233  and  _235
REMARK   94  A    between atoms: _235  and  _236
REMARK   95  A    between atoms: _235  and  _238
REMARK   96  A    between atoms: _241  and  _243
REMARK   97  A    between atoms: _243  and  _244
REMARK   98  A    between atoms: _247  and  _249
REMARK   99  A    between atoms: _249  and  _250
REMARK  100  A    between atoms: _249  and  _252
REMARK  101  A    between atoms: _252  and  _253
REMARK  102  A    between atoms: _256  and  _258
REMARK  103  A    between atoms: _258  and  _259
REMARK  104  A    between atoms: _258  and  _261
REMARK  105  A    between atoms: _261  and  _262
REMARK  106  A    between atoms: _262  and  _263
REMARK  107  A    between atoms: _266  and  _268
REMARK  108  A    between atoms: _268  and  _269
REMARK  109  A    between atoms: _268  and  _271
REMARK  110  A    between atoms: _274  and  _276
REMARK  111  A    between atoms: _276  and  _277
REMARK  112  A    between atoms: _276  and  _279
REMARK  113  A    between atoms: _279  and  _280
REMARK  114  A    between atoms: _283  and  _285
REMARK  115  A    between atoms: _285  and  _286
REMARK  116  A    between atoms: _285  and  _288
REMARK  117  A    between atoms: _288  and  _289
REMARK  118  A    between atoms: _289  and  _290
REMARK  119  A    between atoms: _292  and  _294
REMARK  120  A    between atoms: _294  and  _295
REMARK  121  A    between atoms: _294  and  _297
REMARK  122  A    between atoms: _297  and  _298
REMARK  123  A    between atoms: _301  and  _303
REMARK  124  A    between atoms: _303  and  _304
REMARK  125  A    between atoms: _303  and  _306
REMARK  126  A    between atoms: _306  and  _307
REMARK  127  A    between atoms: _307  and  _308
REMARK  128  A    between atoms: _308  and  _309
REMARK  129  A    between atoms: _318  and  _320
REMARK  130  A    between atoms: _320  and  _321
REMARK  131  A    between atoms: _320  and  _323
REMARK  132  A    between atoms: _323  and  _324
REMARK  133  A    between atoms: _326  and  _328
REMARK  134  A    between atoms: _328  and  _329
REMARK  135  A    between atoms: _328  and  _331
REMARK  136  A    between atoms: _331  and  _332
REMARK  137  A    between atoms: _337  and  _339
REMARK  138  A    between atoms: _339  and  _340
REMARK  139  A    between atoms: _339  and  _342
REMARK  140  A    between atoms: _342  and  _343
REMARK  141  A    between atoms: _343  and  _344
REMARK  142  A    between atoms: _347  and  _349
REMARK  143  A    between atoms: _349  and  _350
REMARK  144  A    between atoms: _349  and  _352
REMARK  145  A    between atoms: _352  and  _353
REMARK  146  A    between atoms: _355  and  _357
REMARK  147  A    between atoms: _357  and  _358
REMARK  148  A    between atoms: _357  and  _360
REMARK  149  A    between atoms: _360  and  _361
REMARK  150  A    between atoms: _367  and  _369
REMARK  151  A    between atoms: _369  and  _370
REMARK  152  A    between atoms: _369  and  _372
REMARK  153  A    between atoms: _372  and  _373
REMARK  154  A    between atoms: _375  and  _377
REMARK  155  A    between atoms: _377  and  _378
REMARK  156  A    between atoms: _377  and  _380
REMARK  157  A    between atoms: _380  and  _381
REMARK  158  A    between atoms: _391  and  _393
REMARK  159  A    between atoms: _393  and  _394
REMARK  160  A    between atoms: _393  and  _396
REMARK  161  A    between atoms: _396  and  _397
REMARK  162  A    between atoms: _400  and  _402
REMARK  163  A    between atoms: _402  and  _403
REMARK  164  A    between atoms: _402  and  _405
REMARK  165  A    between atoms: _407  and  _409
REMARK  166  A    between atoms: _409  and  _410
REMARK  167  A    between atoms: _409  and  _412
REMARK  168  A    between atoms: _412  and  _413
REMARK  169  A    between atoms: _418  and  _419
REMARK  170  A    between atoms: _421  and  _423
REMARK  171  A    between atoms: _423  and  _424
REMARK  172  A    between atoms: _423  and  _426
REMARK  173  A    between atoms: _426  and  _427
REMARK  174  A    between atoms: _427  and  _428
REMARK  175  A    between atoms: _428  and  _429
REMARK  176  A    between atoms: _429  and  _430
REMARK  177  A    between atoms: _434  and  _436
REMARK  178  A    between atoms: _436  and  _437
REMARK  179  A    between atoms: _436  and  _439
REMARK  180  A    between atoms: _439  and  _440
REMARK  181  A    between atoms: _445  and  _446
REMARK  182  A    between atoms: _448  and  _450
REMARK  183  A    between atoms: _450  and  _451
REMARK  184  A    between atoms: _450  and  _453
REMARK  185  A    between atoms: _453  and  _454
REMARK  186  A    between atoms: _454  and  _455
REMARK  187  A    between atoms: _455  and  _456
REMARK  188  A    between atoms: _465  and  _467
REMARK  189  A    between atoms: _467  and  _468
REMARK  190  A    between atoms: _467  and  _470
REMARK  191  A    between atoms: _473  and  _475
REMARK  192  A    between atoms: _475  and  _476
REMARK  193  A    between atoms: _475  and  _478
REMARK  194  A    between atoms: _478  and  _479
REMARK  195  A    between atoms: _482  and  _484
REMARK  196  A    between atoms: _484  and  _485
REMARK  197  A    between atoms: _484  and  _487
REMARK  198  A    between atoms: _490  and  _492
REMARK  199  A    between atoms: _492  and  _493
REMARK  200  A    between atoms: _492  and  _495
REMARK  201  A    between atoms: _495  and  _496
REMARK  202  A    between atoms: _499  and  _501
REMARK  203  A    between atoms: _501  and  _502
REMARK  204  A    between atoms: _505  and  _507
REMARK  205  A    between atoms: _507  and  _508
REMARK  206  A    between atoms: _510  and  _512
REMARK  207  A    between atoms: _512  and  _513
REMARK  208  A    between atoms: _512  and  _515
REMARK  209  A    between atoms: _515  and  _516
REMARK  210  A    between atoms: _521  and  _523
REMARK  211  A    between atoms: _523  and  _524
REMARK  212  A    between atoms: _523  and  _526
REMARK  213  A    between atoms: _526  and  _527
REMARK  214  A    between atoms: _530  and  _532
REMARK  215  A    between atoms: _532  and  _533
REMARK  216  A    between atoms: _532  and  _535
REMARK  217  A    between atoms: _535  and  _536
REMARK  218  A    between atoms: _539  and  _541
REMARK  219  A    between atoms: _541  and  _542
REMARK  220  A    between atoms: _541  and  _544
REMARK  221  A    between atoms: _544  and  _545
REMARK  222  A    between atoms: _548  and  _550
REMARK  223  A    between atoms: _550  and  _551
REMARK  224  A    between atoms: _550  and  _553
REMARK  225  A    between atoms: _553  and  _554
REMARK  226  A    between atoms: _554  and  _555
REMARK  227  A    between atoms: _560  and  _562
REMARK  228  A    between atoms: _562  and  _563
REMARK  229  A    between atoms: _562  and  _565
REMARK  230  A    between atoms: _565  and  _566
REMARK  231  A    between atoms: _569  and  _571
REMARK  232  A    between atoms: _571  and  _572
REMARK  233  A    between atoms: _571  and  _574
REMARK  234  A    between atoms: _574  and  _575
REMARK  235  A    between atoms: _580  and  _582
REMARK  236  A    between atoms: _582  and  _583
REMARK  237  A    between atoms: _582  and  _585
REMARK  238  A    between atoms: _585  and  _586
REMARK  239  A    between atoms: _588  and  _590
REMARK  240  A    between atoms: _590  and  _591
REMARK  241  A    between atoms: _590  and  _593
REMARK  242  A    between atoms: _593  and  _594
REMARK  243  A    between atoms: _594  and  _595
REMARK  244  A    between atoms: _600  and  _602
REMARK  245  A    between atoms: _602  and  _603
REMARK  246  A    between atoms: _602  and  _605
REMARK  247  A    between atoms: _605  and  _606
REMARK  248  A    between atoms: _611  and  _612
REMARK  249  A    between atoms: _614  and  _616
REMARK  250  A    between atoms: _616  and  _617
REMARK  251  A    between atoms: _616  and  _619
REMARK  252  A    between atoms: _619  and  _620
REMARK  253  A    between atoms: _620  and  _621
REMARK  254  A    between atoms: _621  and  _622
REMARK  255  A    between atoms: _631  and  _633
REMARK  256  A    between atoms: _633  and  _634
REMARK  257  A    between atoms: _633  and  _636
REMARK  258  A    between atoms: _636  and  _637
REMARK  259  A    between atoms: _640  and  _642
REMARK  260  A    between atoms: _642  and  _643
REMARK  261  A    between atoms: _642  and  _645
REMARK  262  A    between atoms: _647  and  _649
REMARK  263  A    between atoms: _649  and  _650
REMARK  264  A    between atoms: _649  and  _652
REMARK  265  A    between atoms: _652  and  _653
REMARK  266  A    between atoms: _653  and  _654
REMARK  267  A    between atoms: _654  and  _655
REMARK  268  A    between atoms: _655  and  _656
REMARK  269  A    between atoms: _660  and  _662
REMARK  270  A    between atoms: _662  and  _663
REMARK  271  A    between atoms: _662  and  _665
REMARK  272  A    between atoms: _665  and  _666
REMARK  273  A    between atoms: _669  and  _671
REMARK  274  A    between atoms: _671  and  _672
REMARK  275  A    between atoms: _671  and  _674
REMARK  276  A    between atoms: _674  and  _675
REMARK  277  A    between atoms: _678  and  _680
REMARK  278  A    between atoms: _680  and  _681
REMARK  279  A    between atoms: _680  and  _683
REMARK  280  A    between atoms: _686  and  _688
REMARK  281  A    between atoms: _688  and  _689
REMARK  282  A    between atoms: _688  and  _691
REMARK  283  A    between atoms: _691  and  _692
REMARK  284  A    between atoms: _695  and  _697
REMARK  285  A    between atoms: _697  and  _698
REMARK  286  A    between atoms: _697  and  _700
REMARK  287  A    between atoms: _700  and  _701
REMARK                            x       y       z     vdW  Elec       q    Type
REMARK                         _______ _______ _______ _____ _____    ______ ____
ROOT
ATOM      1  CA  TYR A   2       1.104  29.771  36.693  0.00  0.00    +0.153 C 
ENDROOT
BRANCH   1   2
ATOM      2  C   TYR A   2      -0.367  30.199  36.699  0.00  0.00    +0.241 C 
ATOM      3  N   ARG A   3      -0.776  30.895  37.750  0.00  0.00    -0.298 N 
ATOM      4  H   ARG A   3      -0.102  31.125  38.508  0.00  0.00    +0.150 HD
ATOM      5  O   TYR A   2      -1.116  29.900  35.775  0.00  0.00    -0.273 OA
BRANCH   3   6
ATOM      6  CA  ARG A   3      -2.147  31.338  37.854  0.00  0.00    +0.137 C 
BRANCH   6   7
ATOM      7  C   ARG A   3      -2.516  32.202  36.661  0.00  0.00    +0.227 C 
ATOM      8  O   ARG A   3      -3.558  32.014  36.058  0.00  0.00    -0.286 OA
ENDBRANCH   6   7
BRANCH   6   9
ATOM      9  CB  ARG A   3      -2.347  32.106  39.161  0.00  0.00    +0.031 C 
BRANCH   9  10
ATOM     10  CG  ARG A   3      -3.794  32.508  39.416  0.00  0.00    +0.045 C 
BRANCH  10  11
ATOM     11  CD  ARG A   3      -3.977  33.170  40.783  0.00  0.00    +0.174 C 
BRANCH  11  12
ATOM     12  NE  ARG A   3      -3.594  32.290  41.886  0.00  0.00    -0.265 N 
ATOM     13  CZ  ARG A   3      -2.482  32.426  42.608  0.00  0.00    +0.342 C 
ATOM     14  NH2 ARG A   3      -2.211  31.566  43.585  0.00  0.00    -0.292 N 
ATOM     15 HH21 ARG A   3      -1.343  31.674  44.147  0.00  0.00    +0.255 HD
ATOM     16 HH22 ARG A   3      -2.867  30.785  43.787  0.00  0.00    +0.255 HD
ATOM     17  NH1 ARG A   3      -1.633  33.415  42.352  0.00  0.00    -0.292 N 
ATOM     18 HH11 ARG A   3      -0.767  33.516  42.919  0.00  0.00    +0.255 HD
ATOM     19 HH12 ARG A   3      -1.835  34.088  41.585  0.00  0.00    +0.255 HD
ATOM     20  HE  ARG A   3      -4.233  31.504  42.123  0.00  0.00    +0.259 HD
ENDBRANCH  11  12
ENDBRANCH  10  11
ENDBRANCH   9  10
ENDBRANCH   6   9
ENDBRANCH   3   6
ENDBRANCH   1   2
BRANCH   1  22
ATOM     21  C   GLN A   1       2.004  31.989  36.523  0.00  0.00    +0.238 C 
ATOM     22  N   TYR A   2       1.934  30.852  37.200  0.00  0.00    -0.297 N 
ATOM     23  H   TYR A   2       2.467  30.734  38.085  0.00  0.00    +0.150 HD
ATOM     24  O   GLN A   1       1.410  32.160  35.465  0.00  0.00    -0.274 OA
BRANCH  21  25
ATOM     25  CA  GLN A   1       2.855  33.090  37.115  0.00  0.00    +0.145 C 
BRANCH  25  26
ATOM     26  N   GLN A   1       2.806  33.105  38.573  0.00  0.00    -0.238 NA
ATOM     27  H   GLN A   1       3.636  32.805  39.123  0.00  0.00    +0.142 HD
ENDBRANCH  25  26
BRANCH  25  28
ATOM     28  CB  GLN A   1       4.301  32.985  36.625  0.00  0.00    +0.036 C 
BRANCH  28  29
ATOM     29  CG  GLN A   1       5.093  34.217  37.015  0.00  0.00    +0.087 C 
BRANCH  29  30
ATOM     30  CD  GLN A   1       6.354  34.378  36.222  0.00  0.00    +0.219 C 
ATOM     31  NE2 GLN A   1       7.249  35.221  36.718  0.00  0.00    -0.329 N 
ATOM     32 HE21 GLN A   1       7.060  35.711  37.616  0.00  0.00    +0.145 HD
ATOM     33 HE22 GLN A   1       8.140  35.392  36.209  0.00  0.00    +0.145 HD
ATOM     34  OE1 GLN A   1       6.525  33.772  35.165  0.00  0.00    -0.275 OA
ENDBRANCH  29  30
ENDBRANCH  28  29
ENDBRANCH  25  28
ENDBRANCH  21  25
ENDBRANCH   1  22
BRANCH   1  35
ATOM     35  CB  TYR A   2       1.289  28.520  37.555  0.00  0.00    +0.055 C 
BRANCH  35  36
ATOM     36  CG  TYR A   2       0.349  27.410  37.180  0.00  0.00    -0.020 A 
ATOM     37  CD2 TYR A   2      -0.939  27.360  37.710  0.00  0.00    -0.001 A 
ATOM     38  CE2 TYR A   2      -1.836  26.355  37.333  0.00  0.00    +0.036 A 
ATOM     39  CZ  TYR A   2      -1.434  25.402  36.420  0.00  0.00    +0.134 A 
ATOM     40  CE1 TYR A   2      -0.151  25.434  35.883  0.00  0.00    +0.036 A 
ATOM     41  CD1 TYR A   2       0.726  26.437  36.265  0.00  0.00    -0.001 A 
BRANCH  39  42
ATOM     42  OH  TYR A   2      -2.319  24.430  36.010  0.00  0.00    -0.506 OA
ATOM     43  HH  TYR A   2      -1.873  23.832  35.359  0.00  0.00    +0.292 HD
ENDBRANCH  39  42
ENDBRANCH  35  36
ENDBRANCH   1  35
TORSDOF 16
REMARK  Name = ../refined-set-2016/1ie9/1ie9_pocket.pdb
REMARK  287 active torsions:
REMARK  status: ('A' for Active; 'I' for Inactive)
REMARK    1  A    between atoms: _1  and  _3
REMARK    2  A    between atoms: _3  and  _4
REMARK    3  A    between atoms: _3  and  _6
REMARK    4  A    between atoms: _6  and  _7
REMARK    5  A    between atoms: _10  and  _12
REMARK    6  A    between atoms: _12  and  _13
REMARK    7  A    between atoms: _12  and  _15
REMARK    8  A    between atoms: _15  and  _16
REMARK    9  A    between atoms: _21  and  _22
REMARK   10  A    between atoms: _24  and  _26
REMARK   11  A    between atoms: _26  and  _27
REMARK   12  A    between atoms: _26  and  _29
REMARK   13  A    between atoms: _29  and  _30
REMARK   14  A    between atoms: _34  and  _35
REMARK   15  A    between atoms: _40  and  _42
REMARK   16  A    between atoms: _42  and  _43
REMARK   17  A    between atoms: _42  and  _45
REMARK   18  A    between atoms: _45  and  _46
REMARK   19  A    between atoms: _51  and  _52
REMARK   20  A    between atoms: _54  and  _56
REMARK   21  A    between atoms: _56  and  _57
REMARK   22  A    between atoms: _56  and  _59
REMARK   23  A    between atoms: _59  and  _60
REMARK   24  A    between atoms: _66  and  _68
REMARK   25  A    between atoms: _68  and  _69
REMARK   26  A    between atoms: _68  and  _71
REMARK   27  A    between atoms: _71  and  _72
REMARK   28  A    between atoms: _78  and  _80
REMARK   29  A    between atoms: _80  and  _81
REMARK   30  A    between atoms: _80  and  _83
REMARK   31  A    between atoms: _83  and  _84
REMARK   32  A    between atoms: _84  and  _85
REMARK   33  A    between atoms: _85  and  _86
REMARK   34  A    between atoms: _95  and  _97
REMARK   35  A    between atoms: _97  and  _98
REMARK   36  A    between atoms: _97  and  _100
REMARK   37  A    between atoms: _100  and  _101
REMARK   38  A    between atoms: _104  and  _106
REMARK   39  A    between atoms: _106  and  _107
REMARK   40  A    between atoms: _106  and  _109
REMARK   41  A    between atoms: _109  and  _110
REMARK   42  A    between atoms: _110  and  _111
REMARK   43  A    between atoms: _113  and  _115
REMARK   44  A    between atoms: _115  and  _116
REMARK   45  A    between atoms: _115  and  _118
REMARK   46  A    between atoms: _118  and  _119
REMARK   47  A    between atoms: _123  and  _124
REMARK   48  A    between atoms: _129  and  _131
REMARK   49  A    between atoms: _131  and  _132
REMARK   50  A    between atoms: _131  and  _134
REMARK   51  A    between atoms: _134  and  _135
REMARK   52  A    between atoms: _140  and  _142
REMARK   53  A    between atoms: _142  and  _143
REMARK   54  A    between atoms: _142  and  _145
REMARK   55  A    between atoms: _145  and  _146
REMARK   56  A    between atoms: _149  and  _151
REMARK   57  A    between atoms: _151  and  _152
REMARK   58  A    between atoms: _155  and  _157
REMARK   59  A    between atoms: _157  and  _158
REMARK   60  A    between atoms: _157  and  _160
REMARK   61  A    between atoms: _160  and  _161
REMARK   62  A    between atoms: _164  and  _166
REMARK   63  A    between atoms: _166  and  _167
REMARK   64  A    between atoms: _166  and  _169
REMARK   65  A    between atoms: _169  and  _170
REMARK   66  A    between atoms: _173  and  _175
REMARK   67  A    between atoms: _175  and  _176
REMARK   68  A    between atoms: _175  and  _178
REMARK   69  A    between atoms: _181  and  _183
REMARK   70  A    between atoms: _183  and  _184
REMARK   71  A    between atoms: _183  and  _186
REMARK   72  A    between atoms: _186  and  _187
REMARK   73  A    between atoms: _189  and  _191
REMARK   74  A    between atoms: _191  and  _192
REMARK   75  A    between atoms: _191  and  _194
REMARK   76  A    between atoms: _194  and  _195
REMARK   77  A    between atoms: _200  and  _201
REMARK   78  A    between atoms: _203  and  _205
REMARK   79  A    between atoms: _205  and  _206
REMARK   80  A    between atoms: _205  and  _208
REMARK   81  A    between atoms: _208  and  _209
REMARK   82  A    between atoms: _211  and  _213
REMARK   83  A    between atoms: _213  and  _214
REMARK   84  A    between atoms: _213  and  _216
REMARK   85  A    between atoms: _216  and  _217
REMARK   86  A    between atoms: _220  and  _222
REMARK   87  A    between atoms: _222  and  _223
REMARK   88  A    between atoms: _222  and  _225
REMARK   89  A    between atoms: _225  and  _226
REMARK   90  A    between atoms: _226  and  _227
REMARK   91  A    between atoms: _227  and  _228
REMARK   92  A    between atoms: _228  and  _229
REMARK   93  A    between atoms: _233  and  _235
REMARK   94  A    between atoms: _235  and  _236
REMARK   95  A    between atoms: _235  and  _238
REMARK   96  A    between atoms: _241  and  _243
REMARK   97  A    between atoms: _243  and  _244
REMARK   98  A    between atoms: _247  and  _249
REMARK   99  A    between atoms: _249  and  _250
REMARK  100  A    between atoms: _249  and  _252
REMARK  101  A    between atoms: _252  and  _253
REMARK  102  A    between atoms: _256  and  _258
REMARK  103  A    between atoms: _258  and  _259
REMARK  104  A    between atoms: _258  and  _261
REMARK  105  A    between atoms: _261  and  _262
REMARK  106  A    between atoms: _262  and  _263
REMARK  107  A    between atoms: _266  and  _268
REMARK  108  A    between atoms: _268  and  _269
REMARK  109  A    between atoms: _268  and  _271
REMARK  110  A    between atoms: _274  and  _276
REMARK  111  A    between atoms: _276  and  _277
REMARK  112  A    between atoms: _276  and  _279
REMARK  113  A    between atoms: _279  and  _280
REMARK  114  A    between atoms: _283  and  _285
REMARK  115  A    between atoms: _285  and  _286
REMARK  116  A    between atoms: _285  and  _288
REMARK  117  A    between atoms: _288  and  _289
REMARK  118  A    between atoms: _289  and  _290
REMARK  119  A    between atoms: _292  and  _294
REMARK  120  A    between atoms: _294  and  _295
REMARK  121  A    between atoms: _294  and  _297
REMARK  122  A    between atoms: _297  and  _298
REMARK  123  A    between atoms: _301  and  _303
REMARK  124  A    between atoms: _303  and  _304
REMARK  125  A    between atoms: _303  and  _306
REMARK  126  A    between atoms: _306  and  _307
REMARK  127  A    between atoms: _307  and  _308
REMARK  128  A    between atoms: _308  and  _309
REMARK  129  A    between atoms: _318  and  _320
REMARK  130  A    between atoms: _320  and  _321
REMARK  131  A    between atoms: _320  and  _323
REMARK  132  A    between atoms: _323  and  _324
REMARK  133  A    between atoms: _326  and  _328
REMARK  134  A    between atoms: _328  and  _329
REMARK  135  A    between atoms: _328  and  _331
REMARK  136  A    between atoms: _331  and  _332
REMARK  137  A    between atoms: _337  and  _339
REMARK  138  A    between atoms: _339  and  _340
REMARK  139  A    between atoms: _339  and  _342
REMARK  140  A    between atoms: _342  and  _343
REMARK  141  A    between atoms: _343  and  _344
REMARK  142  A    between atoms: _347  and  _349
REMARK  143  A    between atoms: _349  and  _350
REMARK  144  A    between atoms: _349  and  _352
REMARK  145  A    between atoms: _352  and  _353
REMARK  146  A    between atoms: _355  and  _357
REMARK  147  A    between atoms: _357  and  _358
REMARK  148  A    between atoms: _357  and  _360
REMARK  149  A    between atoms: _360  and  _361
REMARK  150  A    between atoms: _367  and  _369
REMARK  151  A    between atoms: _369  and  _370
REMARK  152  A    between atoms: _369  and  _372
REMARK  153  A    between atoms: _372  and  _373
REMARK  154  A    between atoms: _375  and  _377
REMARK  155  A    between atoms: _377  and  _378
REMARK  156  A    between atoms: _377  and  _380
REMARK  157  A    between atoms: _380  and  _381
REMARK  158  A    between atoms: _391  and  _393
REMARK  159  A    between atoms: _393  and  _394
REMARK  160  A    between atoms: _393  and  _396
REMARK  161  A    between atoms: _396  and  _397
REMARK  162  A    between atoms: _400  and  _402
REMARK  163  A    between atoms: _402  and  _403
REMARK  164  A    between atoms: _402  and  _405
REMARK  165  A    between atoms: _407  and  _409
REMARK  166  A    between atoms: _409  and  _410
REMARK  167  A    between atoms: _409  and  _412
REMARK  168  A    between atoms: _412  and  _413
REMARK  169  A    between atoms: _418  and  _419
REMARK  170  A    between atoms: _421  and  _423
REMARK  171  A    between atoms: _423  and  _424
REMARK  172  A    between atoms: _423  and  _426
REMARK  173  A    between atoms: _426  and  _427
REMARK  174  A    between atoms: _427  and  _428
REMARK  175  A    between atoms: _428  and  _429
REMARK  176  A    between atoms: _429  and  _430
REMARK  177  A    between atoms: _434  and  _436
REMARK  178  A    between atoms: _436  and  _437
REMARK  179  A    between atoms: _436  and  _439
REMARK  180  A    between atoms: _439  and  _440
REMARK  181  A    between atoms: _445  and  _446
REMARK  182  A    between atoms: _448  and  _450
REMARK  183  A    between atoms: _450  and  _451
REMARK  184  A    between atoms: _450  and  _453
REMARK  185  A    between atoms: _453  and  _454
REMARK  186  A    between atoms: _454  and  _455
REMARK  187  A    between atoms: _455  and  _456
REMARK  188  A    between atoms: _465  and  _467
REMARK  189  A    between atoms: _467  and  _468
REMARK  190  A    between atoms: _467  and  _470
REMARK  191  A    between atoms: _473  and  _475
REMARK  192  A    between atoms: _475  and  _476
REMARK  193  A    between atoms: _475  and  _478
REMARK  194  A    between atoms: _478  and  _479
REMARK  195  A    between atoms: _482  and  _484
REMARK  196  A    between atoms: _484  and  _485
REMARK  197  A    between atoms: _484  and  _487
REMARK  198  A    between atoms: _490  and  _492
REMARK  199  A    between atoms: _492  and  _493
REMARK  200  A    between atoms: _492  and  _495
REMARK  201  A    between atoms: _495  and  _496
REMARK  202  A    between atoms: _499  and  _501
REMARK  203  A    between atoms: _501  and  _502
REMARK  204  A    between atoms: _505  and  _507
REMARK  205  A    between atoms: _507  and  _508
REMARK  206  A    between atoms: _510  and  _512
REMARK  207  A    between atoms: _512  and  _513
REMARK  208  A    between atoms: _512  and  _515
REMARK  209  A    between atoms: _515  and  _516
REMARK  210  A    between atoms: _521  and  _523
REMARK  211  A    between atoms: _523  and  _524
REMARK  212  A    between atoms: _523  and  _526
REMARK  213  A    between atoms: _526  and  _527
REMARK  214  A    between atoms: _530  and  _532
REMARK  215  A    between atoms: _532  and  _533
REMARK  216  A    between atoms: _532  and  _535
REMARK  217  A    between atoms: _535  and  _536
REMARK  218  A    between atoms: _539  and  _541
REMARK  219  A    between atoms: _541  and  _542
REMARK  220  A    between atoms: _541  and  _544
REMARK  221  A    between atoms: _544  and  _545
REMARK  222  A    between atoms: _548  and  _550
REMARK  223  A    between atoms: _550  and  _551
REMARK  224  A    between atoms: _550  and  _553
REMARK  225  A    between atoms: _553  and  _554
REMARK  226  A    between atoms: _554  and  _555
REMARK  227  A    between atoms: _560  and  _562
REMARK  228  A    between atoms: _562  and  _563
REMARK  229  A    between atoms: _562  and  _565
REMARK  230  A    between atoms: _565  and  _566
REMARK  231  A    between atoms: _569  and  _571
REMARK  232  A    between atoms: _571  and  _572
REMARK  233  A    between atoms: _571  and  _574
REMARK  234  A    between atoms: _574  and  _575
REMARK  235  A    between atoms: _580  and  _582
REMARK  236  A    between atoms: _582  and  _583
REMARK  237  A    between atoms: _582  and  _585
REMARK  238  A    between atoms: _585  and  _586
REMARK  239  A    between atoms: _588  and  _590
REMARK  240  A    between atoms: _590  and  _591
REMARK  241  A    between atoms: _590  and  _593
REMARK  242  A    between atoms: _593  and  _594
REMARK  243  A    between atoms: _594  and  _595
REMARK  244  A    between atoms: _600  and  _602
REMARK  245  A    between atoms: _602  and  _603
REMARK  246  A    between atoms: _602  and  _605
REMARK  247  A    between atoms: _605  and  _606
REMARK  248  A    between atoms: _611  and  _612
REMARK  249  A    between atoms: _614  and  _616
REMARK  250  A    between atoms: _616  and  _617
REMARK  251  A    between atoms: _616  and  _619
REMARK  252  A    between atoms: _619  and  _620
REMARK  253  A    between atoms: _620  and  _621
REMARK  254  A    between atoms: _621  and  _622
REMARK  255  A    between atoms: _631  and  _633
REMARK  256  A    between atoms: _633  and  _634
REMARK  257  A    between atoms: _633  and  _636
REMARK  258  A    between atoms: _636  and  _637
REMARK  259  A    between atoms: _640  and  _642
REMARK  260  A    between atoms: _642  and  _643
REMARK  261  A    between atoms: _642  and  _645
REMARK  262  A    between atoms: _647  and  _649
REMARK  263  A    between atoms: _649  and  _650
REMARK  264  A    between atoms: _649  and  _652
REMARK  265  A    between atoms: _652  and  _653
REMARK  266  A    between atoms: _653  and  _654
REMARK  267  A    between atoms: _654  and  _655
REMARK  268  A    between atoms: _655  and  _656
REMARK  269  A    between atoms: _660  and  _662
REMARK  270  A    between atoms: _662  and  _663
REMARK  271  A    between atoms: _662  and  _665
REMARK  272  A    between atoms: _665  and  _666
REMARK  273  A    between atoms: _669  and  _671
REMARK  274  A    between atoms: _671  and  _672
REMARK  275  A    between atoms: _671  and  _674
REMARK  276  A    between atoms: _674  and  _675
REMARK  277  A    between atoms: _678  and  _680
REMARK  278  A    between atoms: _680  and  _681
REMARK  279  A    between atoms: _680  and  _683
REMARK  280  A    between atoms: _686  and  _688
REMARK  281  A    between atoms: _688  and  _689
REMARK  282  A    between atoms: _688  and  _691
REMARK  283  A    between atoms: _691  and  _692
REMARK  284  A    between atoms: _695  and  _697
REMARK  285  A    between atoms: _697  and  _698
REMARK  286  A    between atoms: _697  and  _700
REMARK  287  A    between atoms: _700  and  _701
REMARK                            x       y       z     vdW  Elec       q    Type
REMARK                         _______ _______ _______ _____ _____    ______ ____
ROOT
ATOM      1  CA  LEU A   1      -0.815  31.562  32.506  0.00  0.00    +0.133 C 
ENDROOT
BRANCH   1   2
ATOM      2  N   LEU A   1      -0.935  32.374  33.689  0.00  0.00    -0.239 NA
ATOM      3  H   LEU A   1      -0.243  32.252  34.455  0.00  0.00    +0.142 HD
ENDBRANCH   1   2
BRANCH   1   4
ATOM      4  C   LEU A   1      -2.131  30.790  32.316  0.00  0.00    +0.224 C 
ATOM      5  O   LEU A   1      -2.658  30.718  31.209  0.00  0.00    -0.287 OA
ENDBRANCH   1   4
BRANCH   1   6
ATOM      6  CB  LEU A   1       0.369  30.596  32.662  0.00  0.00    +0.025 C 
BRANCH   6   7
ATOM      7  CG  LEU A   1       0.436  29.442  31.667  0.00  0.00    +0.002 C 
ATOM      8  CD2 LEU A   1       1.657  28.584  31.936  0.00  0.00    +0.000 C 
ATOM      9  CD1 LEU A   1       0.491  30.007  30.266  0.00  0.00    +0.000 C 
ENDBRANCH   6   7
ENDBRANCH   1   6
TORSDOF 4
REMARK  Name = ../refined-set-2016/1ie9/1ie9_pocket.pdb
REMARK  287 active torsions:
REMARK  status: ('A' for Active; 'I' for Inactive)
REMARK    1  A    between atoms: _1  and  _3
REMARK    2  A    between atoms: _3  and  _4
REMARK    3  A    between atoms: _3  and  _6
REMARK    4  A    between atoms: _6  and  _7
REMARK    5  A    between atoms: _10  and  _12
REMARK    6  A    between atoms: _12  and  _13
REMARK    7  A    between atoms: _12  and  _15
REMARK    8  A    between atoms: _15  and  _16
REMARK    9  A    between atoms: _21  and  _22
REMARK   10  A    between atoms: _24  and  _26
REMARK   11  A    between atoms: _26  and  _27
REMARK   12  A    between atoms: _26  and  _29
REMARK   13  A    between atoms: _29  and  _30
REMARK   14  A    between atoms: _34  and  _35
REMARK   15  A    between atoms: _40  and  _42
REMARK   16  A    between atoms: _42  and  _43
REMARK   17  A    between atoms: _42  and  _45
REMARK   18  A    between atoms: _45  and  _46
REMARK   19  A    between atoms: _51  and  _52
REMARK   20  A    between atoms: _54  and  _56
REMARK   21  A    between atoms: _56  and  _57
REMARK   22  A    between atoms: _56  and  _59
REMARK   23  A    between atoms: _59  and  _60
REMARK   24  A    between atoms: _66  and  _68
REMARK   25  A    between atoms: _68  and  _69
REMARK   26  A    between atoms: _68  and  _71
REMARK   27  A    between atoms: _71  and  _72
REMARK   28  A    between atoms: _78  and  _80
REMARK   29  A    between atoms: _80  and  _81
REMARK   30  A    between atoms: _80  and  _83
REMARK   31  A    between atoms: _83  and  _84
REMARK   32  A    between atoms: _84  and  _85
REMARK   33  A    between atoms: _85  and  _86
REMARK   34  A    between atoms: _95  and  _97
REMARK   35  A    between atoms: _97  and  _98
REMARK   36  A    between atoms: _97  and  _100
REMARK   37  A    between atoms: _100  and  _101
REMARK   38  A    between atoms: _104  and  _106
REMARK   39  A    between atoms: _106  and  _107
REMARK   40  A    between atoms: _106  and  _109
REMARK   41  A    between atoms: _109  and  _110
REMARK   42  A    between atoms: _110  and  _111
REMARK   43  A    between atoms: _113  and  _115
REMARK   44  A    between atoms: _115  and  _116
REMARK   45  A    between atoms: _115  and  _118
REMARK   46  A    between atoms: _118  and  _119
REMARK   47  A    between atoms: _123  and  _124
REMARK   48  A    between atoms: _129  and  _131
REMARK   49  A    between atoms: _131  and  _132
REMARK   50  A    between atoms: _131  and  _134
REMARK   51  A    between atoms: _134  and  _135
REMARK   52  A    between atoms: _140  and  _142
REMARK   53  A    between atoms: _142  and  _143
REMARK   54  A    between atoms: _142  and  _145
REMARK   55  A    between atoms: _145  and  _146
REMARK   56  A    between atoms: _149  and  _151
REMARK   57  A    between atoms: _151  and  _152
REMARK   58  A    between atoms: _155  and  _157
REMARK   59  A    between atoms: _157  and  _158
REMARK   60  A    between atoms: _157  and  _160
REMARK   61  A    between atoms: _160  and  _161
REMARK   62  A    between atoms: _164  and  _166
REMARK   63  A    between atoms: _166  and  _167
REMARK   64  A    between atoms: _166  and  _169
REMARK   65  A    between atoms: _169  and  _170
REMARK   66  A    between atoms: _173  and  _175
REMARK   67  A    between atoms: _175  and  _176
REMARK   68  A    between atoms: _175  and  _178
REMARK   69  A    between atoms: _181  and  _183
REMARK   70  A    between atoms: _183  and  _184
REMARK   71  A    between atoms: _183  and  _186
REMARK   72  A    between atoms: _186  and  _187
REMARK   73  A    between atoms: _189  and  _191
REMARK   74  A    between atoms: _191  and  _192
REMARK   75  A    between atoms: _191  and  _194
REMARK   76  A    between atoms: _194  and  _195
REMARK   77  A    between atoms: _200  and  _201
REMARK   78  A    between atoms: _203  and  _205
REMARK   79  A    between atoms: _205  and  _206
REMARK   80  A    between atoms: _205  and  _208
REMARK   81  A    between atoms: _208  and  _209
REMARK   82  A    between atoms: _211  and  _213
REMARK   83  A    between atoms: _213  and  _214
REMARK   84  A    between atoms: _213  and  _216
REMARK   85  A    between atoms: _216  and  _217
REMARK   86  A    between atoms: _220  and  _222
REMARK   87  A    between atoms: _222  and  _223
REMARK   88  A    between atoms: _222  and  _225
REMARK   89  A    between atoms: _225  and  _226
REMARK   90  A    between atoms: _226  and  _227
REMARK   91  A    between atoms: _227  and  _228
REMARK   92  A    between atoms: _228  and  _229
REMARK   93  A    between atoms: _233  and  _235
REMARK   94  A    between atoms: _235  and  _236
REMARK   95  A    between atoms: _235  and  _238
REMARK   96  A    between atoms: _241  and  _243
REMARK   97  A    between atoms: _243  and  _244
REMARK   98  A    between atoms: _247  and  _249
REMARK   99  A    between atoms: _249  and  _250
REMARK  100  A    between atoms: _249  and  _252
REMARK  101  A    between atoms: _252  and  _253
REMARK  102  A    between atoms: _256  and  _258
REMARK  103  A    between atoms: _258  and  _259
REMARK  104  A    between atoms: _258  and  _261
REMARK  105  A    between atoms: _261  and  _262
REMARK  106  A    between atoms: _262  and  _263
REMARK  107  A    between atoms: _266  and  _268
REMARK  108  A    between atoms: _268  and  _269
REMARK  109  A    between atoms: _268  and  _271
REMARK  110  A    between atoms: _274  and  _276
REMARK  111  A    between atoms: _276  and  _277
REMARK  112  A    between atoms: _276  and  _279
REMARK  113  A    between atoms: _279  and  _280
REMARK  114  A    between atoms: _283  and  _285
REMARK  115  A    between atoms: _285  and  _286
REMARK  116  A    between atoms: _285  and  _288
REMARK  117  A    between atoms: _288  and  _289
REMARK  118  A    between atoms: _289  and  _290
REMARK  119  A    between atoms: _292  and  _294
REMARK  120  A    between atoms: _294  and  _295
REMARK  121  A    between atoms: _294  and  _297
REMARK  122  A    between atoms: _297  and  _298
REMARK  123  A    between atoms: _301  and  _303
REMARK  124  A    between atoms: _303  and  _304
REMARK  125  A    between atoms: _303  and  _306
REMARK  126  A    between atoms: _306  and  _307
REMARK  127  A    between atoms: _307  and  _308
REMARK  128  A    between atoms: _308  and  _309
REMARK  129  A    between atoms: _318  and  _320
REMARK  130  A    between atoms: _320  and  _321
REMARK  131  A    between atoms: _320  and  _323
REMARK  132  A    between atoms: _323  and  _324
REMARK  133  A    between atoms: _326  and  _328
REMARK  134  A    between atoms: _328  and  _329
REMARK  135  A    between atoms: _328  and  _331
REMARK  136  A    between atoms: _331  and  _332
REMARK  137  A    between atoms: _337  and  _339
REMARK  138  A    between atoms: _339  and  _340
REMARK  139  A    between atoms: _339  and  _342
REMARK  140  A    between atoms: _342  and  _343
REMARK  141  A    between atoms: _343  and  _344
REMARK  142  A    between atoms: _347  and  _349
REMARK  143  A    between atoms: _349  and  _350
REMARK  144  A    between atoms: _349  and  _352
REMARK  145  A    between atoms: _352  and  _353
REMARK  146  A    between atoms: _355  and  _357
REMARK  147  A    between atoms: _357  and  _358
REMARK  148  A    between atoms: _357  and  _360
REMARK  149  A    between atoms: _360  and  _361
REMARK  150  A    between atoms: _367  and  _369
REMARK  151  A    between atoms: _369  and  _370
REMARK  152  A    between atoms: _369  and  _372
REMARK  153  A    between atoms: _372  and  _373
REMARK  154  A    between atoms: _375  and  _377
REMARK  155  A    between atoms: _377  and  _378
REMARK  156  A    between atoms: _377  and  _380
REMARK  157  A    between atoms: _380  and  _381
REMARK  158  A    between atoms: _391  and  _393
REMARK  159  A    between atoms: _393  and  _394
REMARK  160  A    between atoms: _393  and  _396
REMARK  161  A    between atoms: _396  and  _397
REMARK  162  A    between atoms: _400  and  _402
REMARK  163  A    between atoms: _402  and  _403
REMARK  164  A    between atoms: _402  and  _405
REMARK  165  A    between atoms: _407  and  _409
REMARK  166  A    between atoms: _409  and  _410
REMARK  167  A    between atoms: _409  and  _412
REMARK  168  A    between atoms: _412  and  _413
REMARK  169  A    between atoms: _418  and  _419
REMARK  170  A    between atoms: _421  and  _423
REMARK  171  A    between atoms: _423  and  _424
REMARK  172  A    between atoms: _423  and  _426
REMARK  173  A    between atoms: _426  and  _427
REMARK  174  A    between atoms: _427  and  _428
REMARK  175  A    between atoms: _428  and  _429
REMARK  176  A    between atoms: _429  and  _430
REMARK  177  A    between atoms: _434  and  _436
REMARK  178  A    between atoms: _436  and  _437
REMARK  179  A    between atoms: _436  and  _439
REMARK  180  A    between atoms: _439  and  _440
REMARK  181  A    between atoms: _445  and  _446
REMARK  182  A    between atoms: _448  and  _450
REMARK  183  A    between atoms: _450  and  _451
REMARK  184  A    between atoms: _450  and  _453
REMARK  185  A    between atoms: _453  and  _454
REMARK  186  A    between atoms: _454  and  _455
REMARK  187  A    between atoms: _455  and  _456
REMARK  188  A    between atoms: _465  and  _467
REMARK  189  A    between atoms: _467  and  _468
REMARK  190  A    between atoms: _467  and  _470
REMARK  191  A    between atoms: _473  and  _475
REMARK  192  A    between atoms: _475  and  _476
REMARK  193  A    between atoms: _475  and  _478
REMARK  194  A    between atoms: _478  and  _479
REMARK  195  A    between atoms: _482  and  _484
REMARK  196  A    between atoms: _484  and  _485
REMARK  197  A    between atoms: _484  and  _487
REMARK  198  A    between atoms: _490  and  _492
REMARK  199  A    between atoms: _492  and  _493
REMARK  200  A    between atoms: _492  and  _495
REMARK  201  A    between atoms: _495  and  _496
REMARK  202  A    between atoms: _499  and  _501
REMARK  203  A    between atoms: _501  and  _502
REMARK  204  A    between atoms: _505  and  _507
REMARK  205  A    between atoms: _507  and  _508
REMARK  206  A    between atoms: _510  and  _512
REMARK  207  A    between atoms: _512  and  _513
REMARK  208  A    between atoms: _512  and  _515
REMARK  209  A    between atoms: _515  and  _516
REMARK  210  A    between atoms: _521  and  _523
REMARK  211  A    between atoms: _523  and  _524
REMARK  212  A    between atoms: _523  and  _526
REMARK  213  A    between atoms: _526  and  _527
REMARK  214  A    between atoms: _530  and  _532
REMARK  215  A    between atoms: _532  and  _533
REMARK  216  A    between atoms: _532  and  _535
REMARK  217  A    between atoms: _535  and  _536
REMARK  218  A    between atoms: _539  and  _541
REMARK  219  A    between atoms: _541  and  _542
REMARK  220  A    between atoms: _541  and  _544
REMARK  221  A    between atoms: _544  and  _545
REMARK  222  A    between atoms: _548  and  _550
REMARK  223  A    between atoms: _550  and  _551
REMARK  224  A    between atoms: _550  and  _553
REMARK  225  A    between atoms: _553  and  _554
REMARK  226  A    between atoms: _554  and  _555
REMARK  227  A    between atoms: _560  and  _562
REMARK  228  A    between atoms: _562  and  _563
REMARK  229  A    between atoms: _562  and  _565
REMARK  230  A    between atoms: _565  and  _566
REMARK  231  A    between atoms: _569  and  _571
REMARK  232  A    between atoms: _571  and  _572
REMARK  233  A    between atoms: _571  and  _574
REMARK  234  A    between atoms: _574  and  _575
REMARK  235  A    between atoms: _580  and  _582
REMARK  236  A    between atoms: _582  and  _583
REMARK  237  A    between atoms: _582  and  _585
REMARK  238  A    between atoms: _585  and  _586
REMARK  239  A    between atoms: _588  and  _590
REMARK  240  A    between atoms: _590  and  _591
REMARK  241  A    between atoms: _590  and  _593
REMARK  242  A    between atoms: _593  and  _594
REMARK  243  A    between atoms: _594  and  _595
REMARK  244  A    between atoms: _600  and  _602
REMARK  245  A    between atoms: _602  and  _603
REMARK  246  A    between atoms: _602  and  _605
REMARK  247  A    between atoms: _605  and  _606
REMARK  248  A    between atoms: _611  and  _612
REMARK  249  A    between atoms: _614  and  _616
REMARK  250  A    between atoms: _616  and  _617
REMARK  251  A    between atoms: _616  and  _619
REMARK  252  A    between atoms: _619  and  _620
REMARK  253  A    between atoms: _620  and  _621
REMARK  254  A    between atoms: _621  and  _622
REMARK  255  A    between atoms: _631  and  _633
REMARK  256  A    between atoms: _633  and  _634
REMARK  257  A    between atoms: _633  and  _636
REMARK  258  A    between atoms: _636  and  _637
REMARK  259  A    between atoms: _640  and  _642
REMARK  260  A    between atoms: _642  and  _643
REMARK  261  A    between atoms: _642  and  _645
REMARK  262  A    between atoms: _647  and  _649
REMARK  263  A    between atoms: _649  and  _650
REMARK  264  A    between atoms: _649  and  _652
REMARK  265  A    between atoms: _652  and  _653
REMARK  266  A    between atoms: _653  and  _654
REMARK  267  A    between atoms: _654  and  _655
REMARK  268  A    between atoms: _655  and  _656
REMARK  269  A    between atoms: _660  and  _662
REMARK  270  A    between atoms: _662  and  _663
REMARK  271  A    between atoms: _662  and  _665
REMARK  272  A    between atoms: _665  and  _666
REMARK  273  A    between atoms: _669  and  _671
REMARK  274  A    between atoms: _671  and  _672
REMARK  275  A    between atoms: _671  and  _674
REMARK  276  A    between atoms: _674  and  _675
REMARK  277  A    between atoms: _678  and  _680
REMARK  278  A    between atoms: _680  and  _681
REMARK  279  A    between atoms: _680  and  _683
REMARK  280  A    between atoms: _686  and  _688
REMARK  281  A    between atoms: _688  and  _689
REMARK  282  A    between atoms: _688  and  _691
REMARK  283  A    between atoms: _691  and  _692
REMARK  284  A    between atoms: _695  and  _697
REMARK  285  A    between atoms: _697  and  _698
REMARK  286  A    between atoms: _697  and  _700
REMARK  287  A    between atoms: _700  and  _701
REMARK                            x       y       z     vdW  Elec       q    Type
REMARK                         _______ _______ _______ _____ _____    ______ ____
ROOT
ATOM      1  CA  CYS A   1      -4.387  26.439  28.321  0.00  0.00    +0.145 C 
ENDROOT
BRANCH   1   2
ATOM      2  N   CYS A   1      -5.623  26.804  27.654  0.00  0.00    -0.238 NA
ATOM      3  H   CYS A   1      -6.191  27.597  28.016  0.00  0.00    +0.142 HD
ENDBRANCH   1   2
BRANCH   1   4
ATOM      4  CB  CYS A   1      -4.074  27.445  29.427  0.00  0.00    +0.094 C 
ATOM      5  SG  CYS A   1      -2.437  27.283  30.171  0.00  0.00    -0.080 S 
ENDBRANCH   1   4
BRANCH   1   6
ATOM      6  C   CYS A   1      -4.434  25.052  28.929  0.00  0.00    +0.225 C 
ATOM      7  O   CYS A   1      -3.424  24.343  28.913  0.00  0.00    -0.287 OA
ENDBRANCH   1   6
TORSDOF 3
REMARK  Name = ../refined-set-2016/1ie9/1ie9_pocket.pdb
REMARK  287 active torsions:
REMARK  status: ('A' for Active; 'I' for Inactive)
REMARK    1  A    between atoms: _1  and  _3
REMARK    2  A    between atoms: _3  and  _4
REMARK    3  A    between atoms: _3  and  _6
REMARK    4  A    between atoms: _6  and  _7
REMARK    5  A    between atoms: _10  and  _12
REMARK    6  A    between atoms: _12  and  _13
REMARK    7  A    between atoms: _12  and  _15
REMARK    8  A    between atoms: _15  and  _16
REMARK    9  A    between atoms: _21  and  _22
REMARK   10  A    between atoms: _24  and  _26
REMARK   11  A    between atoms: _26  and  _27
REMARK   12  A    between atoms: _26  and  _29
REMARK   13  A    between atoms: _29  and  _30
REMARK   14  A    between atoms: _34  and  _35
REMARK   15  A    between atoms: _40  and  _42
REMARK   16  A    between atoms: _42  and  _43
REMARK   17  A    between atoms: _42  and  _45
REMARK   18  A    between atoms: _45  and  _46
REMARK   19  A    between atoms: _51  and  _52
REMARK   20  A    between atoms: _54  and  _56
REMARK   21  A    between atoms: _56  and  _57
REMARK   22  A    between atoms: _56  and  _59
REMARK   23  A    between atoms: _59  and  _60
REMARK   24  A    between atoms: _66  and  _68
REMARK   25  A    between atoms: _68  and  _69
REMARK   26  A    between atoms: _68  and  _71
REMARK   27  A    between atoms: _71  and  _72
REMARK   28  A    between atoms: _78  and  _80
REMARK   29  A    between atoms: _80  and  _81
REMARK   30  A    between atoms: _80  and  _83
REMARK   31  A    between atoms: _83  and  _84
REMARK   32  A    between atoms: _84  and  _85
REMARK   33  A    between atoms: _85  and  _86
REMARK   34  A    between atoms: _95  and  _97
REMARK   35  A    between atoms: _97  and  _98
REMARK   36  A    between atoms: _97  and  _100
REMARK   37  A    between atoms: _100  and  _101
REMARK   38  A    between atoms: _104  and  _106
REMARK   39  A    between atoms: _106  and  _107
REMARK   40  A    between atoms: _106  and  _109
REMARK   41  A    between atoms: _109  and  _110
REMARK   42  A    between atoms: _110  and  _111
REMARK   43  A    between atoms: _113  and  _115
REMARK   44  A    between atoms: _115  and  _116
REMARK   45  A    between atoms: _115  and  _118
REMARK   46  A    between atoms: _118  and  _119
REMARK   47  A    between atoms: _123  and  _124
REMARK   48  A    between atoms: _129  and  _131
REMARK   49  A    between atoms: _131  and  _132
REMARK   50  A    between atoms: _131  and  _134
REMARK   51  A    between atoms: _134  and  _135
REMARK   52  A    between atoms: _140  and  _142
REMARK   53  A    between atoms: _142  and  _143
REMARK   54  A    between atoms: _142  and  _145
REMARK   55  A    between atoms: _145  and  _146
REMARK   56  A    between atoms: _149  and  _151
REMARK   57  A    between atoms: _151  and  _152
REMARK   58  A    between atoms: _155  and  _157
REMARK   59  A    between atoms: _157  and  _158
REMARK   60  A    between atoms: _157  and  _160
REMARK   61  A    between atoms: _160  and  _161
REMARK   62  A    between atoms: _164  and  _166
REMARK   63  A    between atoms: _166  and  _167
REMARK   64  A    between atoms: _166  and  _169
REMARK   65  A    between atoms: _169  and  _170
REMARK   66  A    between atoms: _173  and  _175
REMARK   67  A    between atoms: _175  and  _176
REMARK   68  A    between atoms: _175  and  _178
REMARK   69  A    between atoms: _181  and  _183
REMARK   70  A    between atoms: _183  and  _184
REMARK   71  A    between atoms: _183  and  _186
REMARK   72  A    between atoms: _186  and  _187
REMARK   73  A    between atoms: _189  and  _191
REMARK   74  A    between atoms: _191  and  _192
REMARK   75  A    between atoms: _191  and  _194
REMARK   76  A    between atoms: _194  and  _195
REMARK   77  A    between atoms: _200  and  _201
REMARK   78  A    between atoms: _203  and  _205
REMARK   79  A    between atoms: _205  and  _206
REMARK   80  A    between atoms: _205  and  _208
REMARK   81  A    between atoms: _208  and  _209
REMARK   82  A    between atoms: _211  and  _213
REMARK   83  A    between atoms: _213  and  _214
REMARK   84  A    between atoms: _213  and  _216
REMARK   85  A    between atoms: _216  and  _217
REMARK   86  A    between atoms: _220  and  _222
REMARK   87  A    between atoms: _222  and  _223
REMARK   88  A    between atoms: _222  and  _225
REMARK   89  A    between atoms: _225  and  _226
REMARK   90  A    between atoms: _226  and  _227
REMARK   91  A    between atoms: _227  and  _228
REMARK   92  A    between atoms: _228  and  _229
REMARK   93  A    between atoms: _233  and  _235
REMARK   94  A    between atoms: _235  and  _236
REMARK   95  A    between atoms: _235  and  _238
REMARK   96  A    between atoms: _241  and  _243
REMARK   97  A    between atoms: _243  and  _244
REMARK   98  A    between atoms: _247  and  _249
REMARK   99  A    between atoms: _249  and  _250
REMARK  100  A    between atoms: _249  and  _252
REMARK  101  A    between atoms: _252  and  _253
REMARK  102  A    between atoms: _256  and  _258
REMARK  103  A    between atoms: _258  and  _259
REMARK  104  A    between atoms: _258  and  _261
REMARK  105  A    between atoms: _261  and  _262
REMARK  106  A    between atoms: _262  and  _263
REMARK  107  A    between atoms: _266  and  _268
REMARK  108  A    between atoms: _268  and  _269
REMARK  109  A    between atoms: _268  and  _271
REMARK  110  A    between atoms: _274  and  _276
REMARK  111  A    between atoms: _276  and  _277
REMARK  112  A    between atoms: _276  and  _279
REMARK  113  A    between atoms: _279  and  _280
REMARK  114  A    between atoms: _283  and  _285
REMARK  115  A    between atoms: _285  and  _286
REMARK  116  A    between atoms: _285  and  _288
REMARK  117  A    between atoms: _288  and  _289
REMARK  118  A    between atoms: _289  and  _290
REMARK  119  A    between atoms: _292  and  _294
REMARK  120  A    between atoms: _294  and  _295
REMARK  121  A    between atoms: _294  and  _297
REMARK  122  A    between atoms: _297  and  _298
REMARK  123  A    between atoms: _301  and  _303
REMARK  124  A    between atoms: _303  and  _304
REMARK  125  A    between atoms: _303  and  _306
REMARK  126  A    between atoms: _306  and  _307
REMARK  127  A    between atoms: _307  and  _308
REMARK  128  A    between atoms: _308  and  _309
REMARK  129  A    between atoms: _318  and  _320
REMARK  130  A    between atoms: _320  and  _321
REMARK  131  A    between atoms: _320  and  _323
REMARK  132  A    between atoms: _323  and  _324
REMARK  133  A    between atoms: _326  and  _328
REMARK  134  A    between atoms: _328  and  _329
REMARK  135  A    between atoms: _328  and  _331
REMARK  136  A    between atoms: _331  and  _332
REMARK  137  A    between atoms: _337  and  _339
REMARK  138  A    between atoms: _339  and  _340
REMARK  139  A    between atoms: _339  and  _342
REMARK  140  A    between atoms: _342  and  _343
REMARK  141  A    between atoms: _343  and  _344
REMARK  142  A    between atoms: _347  and  _349
REMARK  143  A    between atoms: _349  and  _350
REMARK  144  A    between atoms: _349  and  _352
REMARK  145  A    between atoms: _352  and  _353
REMARK  146  A    between atoms: _355  and  _357
REMARK  147  A    between atoms: _357  and  _358
REMARK  148  A    between atoms: _357  and  _360
REMARK  149  A    between atoms: _360  and  _361
REMARK  150  A    between atoms: _367  and  _369
REMARK  151  A    between atoms: _369  and  _370
REMARK  152  A    between atoms: _369  and  _372
REMARK  153  A    between atoms: _372  and  _373
REMARK  154  A    between atoms: _375  and  _377
REMARK  155  A    between atoms: _377  and  _378
REMARK  156  A    between atoms: _377  and  _380
REMARK  157  A    between atoms: _380  and  _381
REMARK  158  A    between atoms: _391  and  _393
REMARK  159  A    between atoms: _393  and  _394
REMARK  160  A    between atoms: _393  and  _396
REMARK  161  A    between atoms: _396  and  _397
REMARK  162  A    between atoms: _400  and  _402
REMARK  163  A    between atoms: _402  and  _403
REMARK  164  A    between atoms: _402  and  _405
REMARK  165  A    between atoms: _407  and  _409
REMARK  166  A    between atoms: _409  and  _410
REMARK  167  A    between atoms: _409  and  _412
REMARK  168  A    between atoms: _412  and  _413
REMARK  169  A    between atoms: _418  and  _419
REMARK  170  A    between atoms: _421  and  _423
REMARK  171  A    between atoms: _423  and  _424
REMARK  172  A    between atoms: _423  and  _426
REMARK  173  A    between atoms: _426  and  _427
REMARK  174  A    between atoms: _427  and  _428
REMARK  175  A    between atoms: _428  and  _429
REMARK  176  A    between atoms: _429  and  _430
REMARK  177  A    between atoms: _434  and  _436
REMARK  178  A    between atoms: _436  and  _437
REMARK  179  A    between atoms: _436  and  _439
REMARK  180  A    between atoms: _439  and  _440
REMARK  181  A    between atoms: _445  and  _446
REMARK  182  A    between atoms: _448  and  _450
REMARK  183  A    between atoms: _450  and  _451
REMARK  184  A    between atoms: _450  and  _453
REMARK  185  A    between atoms: _453  and  _454
REMARK  186  A    between atoms: _454  and  _455
REMARK  187  A    between atoms: _455  and  _456
REMARK  188  A    between atoms: _465  and  _467
REMARK  189  A    between atoms: _467  and  _468
REMARK  190  A    between atoms: _467  and  _470
REMARK  191  A    between atoms: _473  and  _475
REMARK  192  A    between atoms: _475  and  _476
REMARK  193  A    between atoms: _475  and  _478
REMARK  194  A    between atoms: _478  and  _479
REMARK  195  A    between atoms: _482  and  _484
REMARK  196  A    between atoms: _484  and  _485
REMARK  197  A    between atoms: _484  and  _487
REMARK  198  A    between atoms: _490  and  _492
REMARK  199  A    between atoms: _492  and  _493
REMARK  200  A    between atoms: _492  and  _495
REMARK  201  A    between atoms: _495  and  _496
REMARK  202  A    between atoms: _499  and  _501
REMARK  203  A    between atoms: _501  and  _502
REMARK  204  A    between atoms: _505  and  _507
REMARK  205  A    between atoms: _507  and  _508
REMARK  206  A    between atoms: _510  and  _512
REMARK  207  A    between atoms: _512  and  _513
REMARK  208  A    between atoms: _512  and  _515
REMARK  209  A    between atoms: _515  and  _516
REMARK  210  A    between atoms: _521  and  _523
REMARK  211  A    between atoms: _523  and  _524
REMARK  212  A    between atoms: _523  and  _526
REMARK  213  A    between atoms: _526  and  _527
REMARK  214  A    between atoms: _530  and  _532
REMARK  215  A    between atoms: _532  and  _533
REMARK  216  A    between atoms: _532  and  _535
REMARK  217  A    between atoms: _535  and  _536
REMARK  218  A    between atoms: _539  and  _541
REMARK  219  A    between atoms: _541  and  _542
REMARK  220  A    between atoms: _541  and  _544
REMARK  221  A    between atoms: _544  and  _545
REMARK  222  A    between atoms: _548  and  _550
REMARK  223  A    between atoms: _550  and  _551
REMARK  224  A    between atoms: _550  and  _553
REMARK  225  A    between atoms: _553  and  _554
REMARK  226  A    between atoms: _554  and  _555
REMARK  227  A    between atoms: _560  and  _562
REMARK  228  A    between atoms: _562  and  _563
REMARK  229  A    between atoms: _562  and  _565
REMARK  230  A    between atoms: _565  and  _566
REMARK  231  A    between atoms: _569  and  _571
REMARK  232  A    between atoms: _571  and  _572
REMARK  233  A    between atoms: _571  and  _574
REMARK  234  A    between atoms: _574  and  _575
REMARK  235  A    between atoms: _580  and  _582
REMARK  236  A    between atoms: _582  and  _583
REMARK  237  A    between atoms: _582  and  _585
REMARK  238  A    between atoms: _585  and  _586
REMARK  239  A    between atoms: _588  and  _590
REMARK  240  A    between atoms: _590  and  _591
REMARK  241  A    between atoms: _590  and  _593
REMARK  242  A    between atoms: _593  and  _594
REMARK  243  A    between atoms: _594  and  _595
REMARK  244  A    between atoms: _600  and  _602
REMARK  245  A    between atoms: _602  and  _603
REMARK  246  A    between atoms: _602  and  _605
REMARK  247  A    between atoms: _605  and  _606
REMARK  248  A    between atoms: _611  and  _612
REMARK  249  A    between atoms: _614  and  _616
REMARK  250  A    between atoms: _616  and  _617
REMARK  251  A    between atoms: _616  and  _619
REMARK  252  A    between atoms: _619  and  _620
REMARK  253  A    between atoms: _620  and  _621
REMARK  254  A    between atoms: _621  and  _622
REMARK  255  A    between atoms: _631  and  _633
REMARK  256  A    between atoms: _633  and  _634
REMARK  257  A    between atoms: _633  and  _636
REMARK  258  A    between atoms: _636  and  _637
REMARK  259  A    between atoms: _640  and  _642
REMARK  260  A    between atoms: _642  and  _643
REMARK  261  A    between atoms: _642  and  _645
REMARK  262  A    between atoms: _647  and  _649
REMARK  263  A    between atoms: _649  and  _650
REMARK  264  A    between atoms: _649  and  _652
REMARK  265  A    between atoms: _652  and  _653
REMARK  266  A    between atoms: _653  and  _654
REMARK  267  A    between atoms: _654  and  _655
REMARK  268  A    between atoms: _655  and  _656
REMARK  269  A    between atoms: _660  and  _662
REMARK  270  A    between atoms: _662  and  _663
REMARK  271  A    between atoms: _662  and  _665
REMARK  272  A    between atoms: _665  and  _666
REMARK  273  A    between atoms: _669  and  _671
REMARK  274  A    between atoms: _671  and  _672
REMARK  275  A    between atoms: _671  and  _674
REMARK  276  A    between atoms: _674  and  _675
REMARK  277  A    between atoms: _678  and  _680
REMARK  278  A    between atoms: _680  and  _681
REMARK  279  A    between atoms: _680  and  _683
REMARK  280  A    between atoms: _686  and  _688
REMARK  281  A    between atoms: _688  and  _689
REMARK  282  A    between atoms: _688  and  _691
REMARK  283  A    between atoms: _691  and  _692
REMARK  284  A    between atoms: _695  and  _697
REMARK  285  A    between atoms: _697  and  _698
REMARK  286  A    between atoms: _697  and  _700
REMARK  287  A    between atoms: _700  and  _701
REMARK                            x       y       z     vdW  Elec       q    Type
REMARK                         _______ _______ _______ _____ _____    ______ ____
ROOT
ATOM      1  CA  LEU A   2      -1.008  21.022  30.479  0.00  0.00    +0.149 C 
ENDROOT
BRANCH   1   3
ATOM      2  C   LYS A   1      -0.831  21.691  28.149  0.00  0.00    +0.238 C 
ATOM      3  N   LEU A   2      -1.583  21.485  29.219  0.00  0.00    -0.297 N 
ATOM      4  H   LEU A   2      -2.607  21.657  29.161  0.00  0.00    +0.150 HD
ATOM      5  O   LYS A   1       0.355  21.497  28.135  0.00  0.00    -0.274 OA
BRANCH   2   6
ATOM      6  CA  LYS A   1      -1.547  22.184  26.903  0.00  0.00    +0.145 C 
BRANCH   6   7
ATOM      7  N   LYS A   1      -2.991  22.167  27.057  0.00  0.00    -0.238 NA
ATOM      8  H   LYS A   1      -3.479  23.034  27.360  0.00  0.00    +0.142 HD
ENDBRANCH   6   7
BRANCH   6   9
ATOM      9  CB  LYS A   1      -1.084  23.601  26.555  0.00  0.00    +0.026 C 
BRANCH   9  10
ATOM     10  CG  LYS A   1      -1.719  24.124  25.281  0.00  0.00    -0.000 C 
BRANCH  10  11
ATOM     11  CD  LYS A   1      -1.162  25.476  24.875  0.00  0.00    -0.024 C 
BRANCH  11  12
ATOM     12  CE  LYS A   1      -1.772  25.949  23.547  0.00  0.00    -0.086 C 
BRANCH  12  13
ATOM     13  NZ  LYS A   1      -3.284  26.122  23.607  0.00  0.00    +0.380 N 
ATOM     14  HZ1 LYS A   1      -3.522  26.829  24.332  0.00  0.00    -0.089 HD
ATOM     15  HZ2 LYS A   1      -3.726  25.213  23.850  0.00  0.00    -0.089 HD
ATOM     16  HZ3 LYS A   1      -3.632  26.442  22.681  0.00  0.00    -0.089 HD
ENDBRANCH  12  13
ENDBRANCH  11  12
ENDBRANCH  10  11
ENDBRANCH   9  10
ENDBRANCH   6   9
ENDBRANCH   2   6
ENDBRANCH   1   3
BRANCH   1  17
ATOM     17  C   LEU A   2      -1.324  19.527  30.604  0.00  0.00    +0.241 C 
ATOM     18  N   THR A   3      -1.389  19.015  31.836  0.00  0.00    -0.296 N 
ATOM     19  H   THR A   3      -1.191  19.635  32.647  0.00  0.00    +0.150 HD
ATOM     20  O   LEU A   2      -1.465  18.841  29.590  0.00  0.00    -0.273 OA
BRANCH  18  21
ATOM     21  CA  THR A   3      -1.729  17.614  32.088  0.00  0.00    +0.164 C 
BRANCH  21  22
ATOM     22  C   THR A   3      -2.563  17.604  33.348  0.00  0.00    +0.229 C 
ATOM     23  O   THR A   3      -2.510  18.538  34.130  0.00  0.00    -0.286 OA
ENDBRANCH  21  22
BRANCH  21  24
ATOM     24  CB  THR A   3      -0.502  16.689  32.376  0.00  0.00    +0.136 C 
ATOM     25  CG2 THR A   3       0.573  16.863  31.295  0.00  0.00    +0.034 C 
BRANCH  24  26
ATOM     26  OG1 THR A   3       0.031  16.986  33.678  0.00  0.00    -0.382 OA
ATOM     27  HG1 THR A   3       0.808  16.399  33.857  0.00  0.00    +0.210 HD
ENDBRANCH  24  26
ENDBRANCH  21  24
ENDBRANCH  18  21
ENDBRANCH   1  17
BRANCH   1  28
ATOM     28  CB  LEU A   2      -1.617  21.838  31.632  0.00  0.00    +0.029 C 
BRANCH  28  29
ATOM     29  CG  LEU A   2      -1.311  23.356  31.572  0.00  0.00    +0.002 C 
ATOM     30  CD2 LEU A   2      -2.075  24.071  32.698  0.00  0.00    +0.000 C 
ATOM     31  CD1 LEU A   2       0.183  23.635  31.668  0.00  0.00    +0.000 C 
ENDBRANCH  28  29
ENDBRANCH   1  28
TORSDOF 15
REMARK  Name = ../refined-set-2016/1ie9/1ie9_pocket.pdb
REMARK  287 active torsions:
REMARK  status: ('A' for Active; 'I' for Inactive)
REMARK    1  A    between atoms: _1  and  _3
REMARK    2  A    between atoms: _3  and  _4
REMARK    3  A    between atoms: _3  and  _6
REMARK    4  A    between atoms: _6  and  _7
REMARK    5  A    between atoms: _10  and  _12
REMARK    6  A    between atoms: _12  and  _13
REMARK    7  A    between atoms: _12  and  _15
REMARK    8  A    between atoms: _15  and  _16
REMARK    9  A    between atoms: _21  and  _22
REMARK   10  A    between atoms: _24  and  _26
REMARK   11  A    between atoms: _26  and  _27
REMARK   12  A    between atoms: _26  and  _29
REMARK   13  A    between atoms: _29  and  _30
REMARK   14  A    between atoms: _34  and  _35
REMARK   15  A    between atoms: _40  and  _42
REMARK   16  A    between atoms: _42  and  _43
REMARK   17  A    between atoms: _42  and  _45
REMARK   18  A    between atoms: _45  and  _46
REMARK   19  A    between atoms: _51  and  _52
REMARK   20  A    between atoms: _54  and  _56
REMARK   21  A    between atoms: _56  and  _57
REMARK   22  A    between atoms: _56  and  _59
REMARK   23  A    between atoms: _59  and  _60
REMARK   24  A    between atoms: _66  and  _68
REMARK   25  A    between atoms: _68  and  _69
REMARK   26  A    between atoms: _68  and  _71
REMARK   27  A    between atoms: _71  and  _72
REMARK   28  A    between atoms: _78  and  _80
REMARK   29  A    between atoms: _80  and  _81
REMARK   30  A    between atoms: _80  and  _83
REMARK   31  A    between atoms: _83  and  _84
REMARK   32  A    between atoms: _84  and  _85
REMARK   33  A    between atoms: _85  and  _86
REMARK   34  A    between atoms: _95  and  _97
REMARK   35  A    between atoms: _97  and  _98
REMARK   36  A    between atoms: _97  and  _100
REMARK   37  A    between atoms: _100  and  _101
REMARK   38  A    between atoms: _104  and  _106
REMARK   39  A    between atoms: _106  and  _107
REMARK   40  A    between atoms: _106  and  _109
REMARK   41  A    between atoms: _109  and  _110
REMARK   42  A    between atoms: _110  and  _111
REMARK   43  A    between atoms: _113  and  _115
REMARK   44  A    between atoms: _115  and  _116
REMARK   45  A    between atoms: _115  and  _118
REMARK   46  A    between atoms: _118  and  _119
REMARK   47  A    between atoms: _123  and  _124
REMARK   48  A    between atoms: _129  and  _131
REMARK   49  A    between atoms: _131  and  _132
REMARK   50  A    between atoms: _131  and  _134
REMARK   51  A    between atoms: _134  and  _135
REMARK   52  A    between atoms: _140  and  _142
REMARK   53  A    between atoms: _142  and  _143
REMARK   54  A    between atoms: _142  and  _145
REMARK   55  A    between atoms: _145  and  _146
REMARK   56  A    between atoms: _149  and  _151
REMARK   57  A    between atoms: _151  and  _152
REMARK   58  A    between atoms: _155  and  _157
REMARK   59  A    between atoms: _157  and  _158
REMARK   60  A    between atoms: _157  and  _160
REMARK   61  A    between atoms: _160  and  _161
REMARK   62  A    between atoms: _164  and  _166
REMARK   63  A    between atoms: _166  and  _167
REMARK   64  A    between atoms: _166  and  _169
REMARK   65  A    between atoms: _169  and  _170
REMARK   66  A    between atoms: _173  and  _175
REMARK   67  A    between atoms: _175  and  _176
REMARK   68  A    between atoms: _175  and  _178
REMARK   69  A    between atoms: _181  and  _183
REMARK   70  A    between atoms: _183  and  _184
REMARK   71  A    between atoms: _183  and  _186
REMARK   72  A    between atoms: _186  and  _187
REMARK   73  A    between atoms: _189  and  _191
REMARK   74  A    between atoms: _191  and  _192
REMARK   75  A    between atoms: _191  and  _194
REMARK   76  A    between atoms: _194  and  _195
REMARK   77  A    between atoms: _200  and  _201
REMARK   78  A    between atoms: _203  and  _205
REMARK   79  A    between atoms: _205  and  _206
REMARK   80  A    between atoms: _205  and  _208
REMARK   81  A    between atoms: _208  and  _209
REMARK   82  A    between atoms: _211  and  _213
REMARK   83  A    between atoms: _213  and  _214
REMARK   84  A    between atoms: _213  and  _216
REMARK   85  A    between atoms: _216  and  _217
REMARK   86  A    between atoms: _220  and  _222
REMARK   87  A    between atoms: _222  and  _223
REMARK   88  A    between atoms: _222  and  _225
REMARK   89  A    between atoms: _225  and  _226
REMARK   90  A    between atoms: _226  and  _227
REMARK   91  A    between atoms: _227  and  _228
REMARK   92  A    between atoms: _228  and  _229
REMARK   93  A    between atoms: _233  and  _235
REMARK   94  A    between atoms: _235  and  _236
REMARK   95  A    between atoms: _235  and  _238
REMARK   96  A    between atoms: _241  and  _243
REMARK   97  A    between atoms: _243  and  _244
REMARK   98  A    between atoms: _247  and  _249
REMARK   99  A    between atoms: _249  and  _250
REMARK  100  A    between atoms: _249  and  _252
REMARK  101  A    between atoms: _252  and  _253
REMARK  102  A    between atoms: _256  and  _258
REMARK  103  A    between atoms: _258  and  _259
REMARK  104  A    between atoms: _258  and  _261
REMARK  105  A    between atoms: _261  and  _262
REMARK  106  A    between atoms: _262  and  _263
REMARK  107  A    between atoms: _266  and  _268
REMARK  108  A    between atoms: _268  and  _269
REMARK  109  A    between atoms: _268  and  _271
REMARK  110  A    between atoms: _274  and  _276
REMARK  111  A    between atoms: _276  and  _277
REMARK  112  A    between atoms: _276  and  _279
REMARK  113  A    between atoms: _279  and  _280
REMARK  114  A    between atoms: _283  and  _285
REMARK  115  A    between atoms: _285  and  _286
REMARK  116  A    between atoms: _285  and  _288
REMARK  117  A    between atoms: _288  and  _289
REMARK  118  A    between atoms: _289  and  _290
REMARK  119  A    between atoms: _292  and  _294
REMARK  120  A    between atoms: _294  and  _295
REMARK  121  A    between atoms: _294  and  _297
REMARK  122  A    between atoms: _297  and  _298
REMARK  123  A    between atoms: _301  and  _303
REMARK  124  A    between atoms: _303  and  _304
REMARK  125  A    between atoms: _303  and  _306
REMARK  126  A    between atoms: _306  and  _307
REMARK  127  A    between atoms: _307  and  _308
REMARK  128  A    between atoms: _308  and  _309
REMARK  129  A    between atoms: _318  and  _320
REMARK  130  A    between atoms: _320  and  _321
REMARK  131  A    between atoms: _320  and  _323
REMARK  132  A    between atoms: _323  and  _324
REMARK  133  A    between atoms: _326  and  _328
REMARK  134  A    between atoms: _328  and  _329
REMARK  135  A    between atoms: _328  and  _331
REMARK  136  A    between atoms: _331  and  _332
REMARK  137  A    between atoms: _337  and  _339
REMARK  138  A    between atoms: _339  and  _340
REMARK  139  A    between atoms: _339  and  _342
REMARK  140  A    between atoms: _342  and  _343
REMARK  141  A    between atoms: _343  and  _344
REMARK  142  A    between atoms: _347  and  _349
REMARK  143  A    between atoms: _349  and  _350
REMARK  144  A    between atoms: _349  and  _352
REMARK  145  A    between atoms: _352  and  _353
REMARK  146  A    between atoms: _355  and  _357
REMARK  147  A    between atoms: _357  and  _358
REMARK  148  A    between atoms: _357  and  _360
REMARK  149  A    between atoms: _360  and  _361
REMARK  150  A    between atoms: _367  and  _369
REMARK  151  A    between atoms: _369  and  _370
REMARK  152  A    between atoms: _369  and  _372
REMARK  153  A    between atoms: _372  and  _373
REMARK  154  A    between atoms: _375  and  _377
REMARK  155  A    between atoms: _377  and  _378
REMARK  156  A    between atoms: _377  and  _380
REMARK  157  A    between atoms: _380  and  _381
REMARK  158  A    between atoms: _391  and  _393
REMARK  159  A    between atoms: _393  and  _394
REMARK  160  A    between atoms: _393  and  _396
REMARK  161  A    between atoms: _396  and  _397
REMARK  162  A    between atoms: _400  and  _402
REMARK  163  A    between atoms: _402  and  _403
REMARK  164  A    between atoms: _402  and  _405
REMARK  165  A    between atoms: _407  and  _409
REMARK  166  A    between atoms: _409  and  _410
REMARK  167  A    between atoms: _409  and  _412
REMARK  168  A    between atoms: _412  and  _413
REMARK  169  A    between atoms: _418  and  _419
REMARK  170  A    between atoms: _421  and  _423
REMARK  171  A    between atoms: _423  and  _424
REMARK  172  A    between atoms: _423  and  _426
REMARK  173  A    between atoms: _426  and  _427
REMARK  174  A    between atoms: _427  and  _428
REMARK  175  A    between atoms: _428  and  _429
REMARK  176  A    between atoms: _429  and  _430
REMARK  177  A    between atoms: _434  and  _436
REMARK  178  A    between atoms: _436  and  _437
REMARK  179  A    between atoms: _436  and  _439
REMARK  180  A    between atoms: _439  and  _440
REMARK  181  A    between atoms: _445  and  _446
REMARK  182  A    between atoms: _448  and  _450
REMARK  183  A    between atoms: _450  and  _451
REMARK  184  A    between atoms: _450  and  _453
REMARK  185  A    between atoms: _453  and  _454
REMARK  186  A    between atoms: _454  and  _455
REMARK  187  A    between atoms: _455  and  _456
REMARK  188  A    between atoms: _465  and  _467
REMARK  189  A    between atoms: _467  and  _468
REMARK  190  A    between atoms: _467  and  _470
REMARK  191  A    between atoms: _473  and  _475
REMARK  192  A    between atoms: _475  and  _476
REMARK  193  A    between atoms: _475  and  _478
REMARK  194  A    between atoms: _478  and  _479
REMARK  195  A    between atoms: _482  and  _484
REMARK  196  A    between atoms: _484  and  _485
REMARK  197  A    between atoms: _484  and  _487
REMARK  198  A    between atoms: _490  and  _492
REMARK  199  A    between atoms: _492  and  _493
REMARK  200  A    between atoms: _492  and  _495
REMARK  201  A    between atoms: _495  and  _496
REMARK  202  A    between atoms: _499  and  _501
REMARK  203  A    between atoms: _501  and  _502
REMARK  204  A    between atoms: _505  and  _507
REMARK  205  A    between atoms: _507  and  _508
REMARK  206  A    between atoms: _510  and  _512
REMARK  207  A    between atoms: _512  and  _513
REMARK  208  A    between atoms: _512  and  _515
REMARK  209  A    between atoms: _515  and  _516
REMARK  210  A    between atoms: _521  and  _523
REMARK  211  A    between atoms: _523  and  _524
REMARK  212  A    between atoms: _523  and  _526
REMARK  213  A    between atoms: _526  and  _527
REMARK  214  A    between atoms: _530  and  _532
REMARK  215  A    between atoms: _532  and  _533
REMARK  216  A    between atoms: _532  and  _535
REMARK  217  A    between atoms: _535  and  _536
REMARK  218  A    between atoms: _539  and  _541
REMARK  219  A    between atoms: _541  and  _542
REMARK  220  A    between atoms: _541  and  _544
REMARK  221  A    between atoms: _544  and  _545
REMARK  222  A    between atoms: _548  and  _550
REMARK  223  A    between atoms: _550  and  _551
REMARK  224  A    between atoms: _550  and  _553
REMARK  225  A    between atoms: _553  and  _554
REMARK  226  A    between atoms: _554  and  _555
REMARK  227  A    between atoms: _560  and  _562
REMARK  228  A    between atoms: _562  and  _563
REMARK  229  A    between atoms: _562  and  _565
REMARK  230  A    between atoms: _565  and  _566
REMARK  231  A    between atoms: _569  and  _571
REMARK  232  A    between atoms: _571  and  _572
REMARK  233  A    between atoms: _571  and  _574
REMARK  234  A    between atoms: _574  and  _575
REMARK  235  A    between atoms: _580  and  _582
REMARK  236  A    between atoms: _582  and  _583
REMARK  237  A    between atoms: _582  and  _585
REMARK  238  A    between atoms: _585  and  _586
REMARK  239  A    between atoms: _588  and  _590
REMARK  240  A    between atoms: _590  and  _591
REMARK  241  A    between atoms: _590  and  _593
REMARK  242  A    between atoms: _593  and  _594
REMARK  243  A    between atoms: _594  and  _595
REMARK  244  A    between atoms: _600  and  _602
REMARK  245  A    between atoms: _602  and  _603
REMARK  246  A    between atoms: _602  and  _605
REMARK  247  A    between atoms: _605  and  _606
REMARK  248  A    between atoms: _611  and  _612
REMARK  249  A    between atoms: _614  and  _616
REMARK  250  A    between atoms: _616  and  _617
REMARK  251  A    between atoms: _616  and  _619
REMARK  252  A    between atoms: _619  and  _620
REMARK  253  A    between atoms: _620  and  _621
REMARK  254  A    between atoms: _621  and  _622
REMARK  255  A    between atoms: _631  and  _633
REMARK  256  A    between atoms: _633  and  _634
REMARK  257  A    between atoms: _633  and  _636
REMARK  258  A    between atoms: _636  and  _637
REMARK  259  A    between atoms: _640  and  _642
REMARK  260  A    between atoms: _642  and  _643
REMARK  261  A    between atoms: _642  and  _645
REMARK  262  A    between atoms: _647  and  _649
REMARK  263  A    between atoms: _649  and  _650
REMARK  264  A    between atoms: _649  and  _652
REMARK  265  A    between atoms: _652  and  _653
REMARK  266  A    between atoms: _653  and  _654
REMARK  267  A    between atoms: _654  and  _655
REMARK  268  A    between atoms: _655  and  _656
REMARK  269  A    between atoms: _660  and  _662
REMARK  270  A    between atoms: _662  and  _663
REMARK  271  A    between atoms: _662  and  _665
REMARK  272  A    between atoms: _665  and  _666
REMARK  273  A    between atoms: _669  and  _671
REMARK  274  A    between atoms: _671  and  _672
REMARK  275  A    between atoms: _671  and  _674
REMARK  276  A    between atoms: _674  and  _675
REMARK  277  A    between atoms: _678  and  _680
REMARK  278  A    between atoms: _680  and  _681
REMARK  279  A    between atoms: _680  and  _683
REMARK  280  A    between atoms: _686  and  _688
REMARK  281  A    between atoms: _688  and  _689
REMARK  282  A    between atoms: _688  and  _691
REMARK  283  A    between atoms: _691  and  _692
REMARK  284  A    between atoms: _695  and  _697
REMARK  285  A    between atoms: _697  and  _698
REMARK  286  A    between atoms: _697  and  _700
REMARK  287  A    between atoms: _700  and  _701
REMARK                            x       y       z     vdW  Elec       q    Type
REMARK                         _______ _______ _______ _____ _____    ______ ____
ROOT
ATOM      1  C   VAL A   1      -1.113  20.464  37.021  0.00  0.00    +0.238 C 
ATOM      2  O   VAL A   1      -0.946  21.342  37.890  0.00  0.00    -0.274 OA
ATOM      3  N   LEU A   2      -2.293  20.241  36.435  0.00  0.00    -0.298 N 
ATOM      4  H   LEU A   2      -2.374  19.498  35.712  0.00  0.00    +0.150 HD
ENDROOT
BRANCH   1   5
ATOM      5  CA  VAL A   1       0.046  19.562  36.581  0.00  0.00    +0.145 C 
BRANCH   5   6
ATOM      6  CB  VAL A   1       0.675  20.031  35.233  0.00  0.00    +0.025 C 
ATOM      7  CG2 VAL A   1       0.924  21.563  35.224  0.00  0.00    +0.002 C 
ATOM      8  CG1 VAL A   1       2.008  19.275  35.041  0.00  0.00    +0.002 C 
ENDBRANCH   5   6
BRANCH   5   9
ATOM      9  N   VAL A   1      -0.407  18.174  36.457  0.00  0.00    -0.238 NA
ATOM     10  H   VAL A   1      -0.359  17.689  35.538  0.00  0.00    +0.142 HD
ENDBRANCH   5   9
ENDBRANCH   1   5
BRANCH   3  11
ATOM     11  CA  LEU A   2      -3.466  21.024  36.796  0.00  0.00    +0.137 C 
BRANCH  11  12
ATOM     12  C   LEU A   2      -3.787  20.899  38.277  0.00  0.00    +0.227 C 
ATOM     13  O   LEU A   2      -4.108  21.882  38.930  0.00  0.00    -0.286 OA
ENDBRANCH  11  12
BRANCH  11  14
ATOM     14  CB  LEU A   2      -4.668  20.577  35.958  0.00  0.00    +0.028 C 
BRANCH  14  15
ATOM     15  CG  LEU A   2      -4.595  21.054  34.502  0.00  0.00    +0.002 C 
ATOM     16  CD2 LEU A   2      -4.825  22.571  34.464  0.00  0.00    +0.000 C 
ATOM     17  CD1 LEU A   2      -5.629  20.343  33.641  0.00  0.00    +0.000 C 
ENDBRANCH  14  15
ENDBRANCH  11  14
ENDBRANCH   3  11
TORSDOF 7
REMARK  Name = ../refined-set-2016/1ie9/1ie9_pocket.pdb
REMARK  287 active torsions:
REMARK  status: ('A' for Active; 'I' for Inactive)
REMARK    1  A    between atoms: _1  and  _3
REMARK    2  A    between atoms: _3  and  _4
REMARK    3  A    between atoms: _3  and  _6
REMARK    4  A    between atoms: _6  and  _7
REMARK    5  A    between atoms: _10  and  _12
REMARK    6  A    between atoms: _12  and  _13
REMARK    7  A    between atoms: _12  and  _15
REMARK    8  A    between atoms: _15  and  _16
REMARK    9  A    between atoms: _21  and  _22
REMARK   10  A    between atoms: _24  and  _26
REMARK   11  A    between atoms: _26  and  _27
REMARK   12  A    between atoms: _26  and  _29
REMARK   13  A    between atoms: _29  and  _30
REMARK   14  A    between atoms: _34  and  _35
REMARK   15  A    between atoms: _40  and  _42
REMARK   16  A    between atoms: _42  and  _43
REMARK   17  A    between atoms: _42  and  _45
REMARK   18  A    between atoms: _45  and  _46
REMARK   19  A    between atoms: _51  and  _52
REMARK   20  A    between atoms: _54  and  _56
REMARK   21  A    between atoms: _56  and  _57
REMARK   22  A    between atoms: _56  and  _59
REMARK   23  A    between atoms: _59  and  _60
REMARK   24  A    between atoms: _66  and  _68
REMARK   25  A    between atoms: _68  and  _69
REMARK   26  A    between atoms: _68  and  _71
REMARK   27  A    between atoms: _71  and  _72
REMARK   28  A    between atoms: _78  and  _80
REMARK   29  A    between atoms: _80  and  _81
REMARK   30  A    between atoms: _80  and  _83
REMARK   31  A    between atoms: _83  and  _84
REMARK   32  A    between atoms: _84  and  _85
REMARK   33  A    between atoms: _85  and  _86
REMARK   34  A    between atoms: _95  and  _97
REMARK   35  A    between atoms: _97  and  _98
REMARK   36  A    between atoms: _97  and  _100
REMARK   37  A    between atoms: _100  and  _101
REMARK   38  A    between atoms: _104  and  _106
REMARK   39  A    between atoms: _106  and  _107
REMARK   40  A    between atoms: _106  and  _109
REMARK   41  A    between atoms: _109  and  _110
REMARK   42  A    between atoms: _110  and  _111
REMARK   43  A    between atoms: _113  and  _115
REMARK   44  A    between atoms: _115  and  _116
REMARK   45  A    between atoms: _115  and  _118
REMARK   46  A    between atoms: _118  and  _119
REMARK   47  A    between atoms: _123  and  _124
REMARK   48  A    between atoms: _129  and  _131
REMARK   49  A    between atoms: _131  and  _132
REMARK   50  A    between atoms: _131  and  _134
REMARK   51  A    between atoms: _134  and  _135
REMARK   52  A    between atoms: _140  and  _142
REMARK   53  A    between atoms: _142  and  _143
REMARK   54  A    between atoms: _142  and  _145
REMARK   55  A    between atoms: _145  and  _146
REMARK   56  A    between atoms: _149  and  _151
REMARK   57  A    between atoms: _151  and  _152
REMARK   58  A    between atoms: _155  and  _157
REMARK   59  A    between atoms: _157  and  _158
REMARK   60  A    between atoms: _157  and  _160
REMARK   61  A    between atoms: _160  and  _161
REMARK   62  A    between atoms: _164  and  _166
REMARK   63  A    between atoms: _166  and  _167
REMARK   64  A    between atoms: _166  and  _169
REMARK   65  A    between atoms: _169  and  _170
REMARK   66  A    between atoms: _173  and  _175
REMARK   67  A    between atoms: _175  and  _176
REMARK   68  A    between atoms: _175  and  _178
REMARK   69  A    between atoms: _181  and  _183
REMARK   70  A    between atoms: _183  and  _184
REMARK   71  A    between atoms: _183  and  _186
REMARK   72  A    between atoms: _186  and  _187
REMARK   73  A    between atoms: _189  and  _191
REMARK   74  A    between atoms: _191  and  _192
REMARK   75  A    between atoms: _191  and  _194
REMARK   76  A    between atoms: _194  and  _195
REMARK   77  A    between atoms: _200  and  _201
REMARK   78  A    between atoms: _203  and  _205
REMARK   79  A    between atoms: _205  and  _206
REMARK   80  A    between atoms: _205  and  _208
REMARK   81  A    between atoms: _208  and  _209
REMARK   82  A    between atoms: _211  and  _213
REMARK   83  A    between atoms: _213  and  _214
REMARK   84  A    between atoms: _213  and  _216
REMARK   85  A    between atoms: _216  and  _217
REMARK   86  A    between atoms: _220  and  _222
REMARK   87  A    between atoms: _222  and  _223
REMARK   88  A    between atoms: _222  and  _225
REMARK   89  A    between atoms: _225  and  _226
REMARK   90  A    between atoms: _226  and  _227
REMARK   91  A    between atoms: _227  and  _228
REMARK   92  A    between atoms: _228  and  _229
REMARK   93  A    between atoms: _233  and  _235
REMARK   94  A    between atoms: _235  and  _236
REMARK   95  A    between atoms: _235  and  _238
REMARK   96  A    between atoms: _241  and  _243
REMARK   97  A    between atoms: _243  and  _244
REMARK   98  A    between atoms: _247  and  _249
REMARK   99  A    between atoms: _249  and  _250
REMARK  100  A    between atoms: _249  and  _252
REMARK  101  A    between atoms: _252  and  _253
REMARK  102  A    between atoms: _256  and  _258
REMARK  103  A    between atoms: _258  and  _259
REMARK  104  A    between atoms: _258  and  _261
REMARK  105  A    between atoms: _261  and  _262
REMARK  106  A    between atoms: _262  and  _263
REMARK  107  A    between atoms: _266  and  _268
REMARK  108  A    between atoms: _268  and  _269
REMARK  109  A    between atoms: _268  and  _271
REMARK  110  A    between atoms: _274  and  _276
REMARK  111  A    between atoms: _276  and  _277
REMARK  112  A    between atoms: _276  and  _279
REMARK  113  A    between atoms: _279  and  _280
REMARK  114  A    between atoms: _283  and  _285
REMARK  115  A    between atoms: _285  and  _286
REMARK  116  A    between atoms: _285  and  _288
REMARK  117  A    between atoms: _288  and  _289
REMARK  118  A    between atoms: _289  and  _290
REMARK  119  A    between atoms: _292  and  _294
REMARK  120  A    between atoms: _294  and  _295
REMARK  121  A    between atoms: _294  and  _297
REMARK  122  A    between atoms: _297  and  _298
REMARK  123  A    between atoms: _301  and  _303
REMARK  124  A    between atoms: _303  and  _304
REMARK  125  A    between atoms: _303  and  _306
REMARK  126  A    between atoms: _306  and  _307
REMARK  127  A    between atoms: _307  and  _308
REMARK  128  A    between atoms: _308  and  _309
REMARK  129  A    between atoms: _318  and  _320
REMARK  130  A    between atoms: _320  and  _321
REMARK  131  A    between atoms: _320  and  _323
REMARK  132  A    between atoms: _323  and  _324
REMARK  133  A    between atoms: _326  and  _328
REMARK  134  A    between atoms: _328  and  _329
REMARK  135  A    between atoms: _328  and  _331
REMARK  136  A    between atoms: _331  and  _332
REMARK  137  A    between atoms: _337  and  _339
REMARK  138  A    between atoms: _339  and  _340
REMARK  139  A    between atoms: _339  and  _342
REMARK  140  A    between atoms: _342  and  _343
REMARK  141  A    between atoms: _343  and  _344
REMARK  142  A    between atoms: _347  and  _349
REMARK  143  A    between atoms: _349  and  _350
REMARK  144  A    between atoms: _349  and  _352
REMARK  145  A    between atoms: _352  and  _353
REMARK  146  A    between atoms: _355  and  _357
REMARK  147  A    between atoms: _357  and  _358
REMARK  148  A    between atoms: _357  and  _360
REMARK  149  A    between atoms: _360  and  _361
REMARK  150  A    between atoms: _367  and  _369
REMARK  151  A    between atoms: _369  and  _370
REMARK  152  A    between atoms: _369  and  _372
REMARK  153  A    between atoms: _372  and  _373
REMARK  154  A    between atoms: _375  and  _377
REMARK  155  A    between atoms: _377  and  _378
REMARK  156  A    between atoms: _377  and  _380
REMARK  157  A    between atoms: _380  and  _381
REMARK  158  A    between atoms: _391  and  _393
REMARK  159  A    between atoms: _393  and  _394
REMARK  160  A    between atoms: _393  and  _396
REMARK  161  A    between atoms: _396  and  _397
REMARK  162  A    between atoms: _400  and  _402
REMARK  163  A    between atoms: _402  and  _403
REMARK  164  A    between atoms: _402  and  _405
REMARK  165  A    between atoms: _407  and  _409
REMARK  166  A    between atoms: _409  and  _410
REMARK  167  A    between atoms: _409  and  _412
REMARK  168  A    between atoms: _412  and  _413
REMARK  169  A    between atoms: _418  and  _419
REMARK  170  A    between atoms: _421  and  _423
REMARK  171  A    between atoms: _423  and  _424
REMARK  172  A    between atoms: _423  and  _426
REMARK  173  A    between atoms: _426  and  _427
REMARK  174  A    between atoms: _427  and  _428
REMARK  175  A    between atoms: _428  and  _429
REMARK  176  A    between atoms: _429  and  _430
REMARK  177  A    between atoms: _434  and  _436
REMARK  178  A    between atoms: _436  and  _437
REMARK  179  A    between atoms: _436  and  _439
REMARK  180  A    between atoms: _439  and  _440
REMARK  181  A    between atoms: _445  and  _446
REMARK  182  A    between atoms: _448  and  _450
REMARK  183  A    between atoms: _450  and  _451
REMARK  184  A    between atoms: _450  and  _453
REMARK  185  A    between atoms: _453  and  _454
REMARK  186  A    between atoms: _454  and  _455
REMARK  187  A    between atoms: _455  and  _456
REMARK  188  A    between atoms: _465  and  _467
REMARK  189  A    between atoms: _467  and  _468
REMARK  190  A    between atoms: _467  and  _470
REMARK  191  A    between atoms: _473  and  _475
REMARK  192  A    between atoms: _475  and  _476
REMARK  193  A    between atoms: _475  and  _478
REMARK  194  A    between atoms: _478  and  _479
REMARK  195  A    between atoms: _482  and  _484
REMARK  196  A    between atoms: _484  and  _485
REMARK  197  A    between atoms: _484  and  _487
REMARK  198  A    between atoms: _490  and  _492
REMARK  199  A    between atoms: _492  and  _493
REMARK  200  A    between atoms: _492  and  _495
REMARK  201  A    between atoms: _495  and  _496
REMARK  202  A    between atoms: _499  and  _501
REMARK  203  A    between atoms: _501  and  _502
REMARK  204  A    between atoms: _505  and  _507
REMARK  205  A    between atoms: _507  and  _508
REMARK  206  A    between atoms: _510  and  _512
REMARK  207  A    between atoms: _512  and  _513
REMARK  208  A    between atoms: _512  and  _515
REMARK  209  A    between atoms: _515  and  _516
REMARK  210  A    between atoms: _521  and  _523
REMARK  211  A    between atoms: _523  and  _524
REMARK  212  A    between atoms: _523  and  _526
REMARK  213  A    between atoms: _526  and  _527
REMARK  214  A    between atoms: _530  and  _532
REMARK  215  A    between atoms: _532  and  _533
REMARK  216  A    between atoms: _532  and  _535
REMARK  217  A    between atoms: _535  and  _536
REMARK  218  A    between atoms: _539  and  _541
REMARK  219  A    between atoms: _541  and  _542
REMARK  220  A    between atoms: _541  and  _544
REMARK  221  A    between atoms: _544  and  _545
REMARK  222  A    between atoms: _548  and  _550
REMARK  223  A    between atoms: _550  and  _551
REMARK  224  A    between atoms: _550  and  _553
REMARK  225  A    between atoms: _553  and  _554
REMARK  226  A    between atoms: _554  and  _555
REMARK  227  A    between atoms: _560  and  _562
REMARK  228  A    between atoms: _562  and  _563
REMARK  229  A    between atoms: _562  and  _565
REMARK  230  A    between atoms: _565  and  _566
REMARK  231  A    between atoms: _569  and  _571
REMARK  232  A    between atoms: _571  and  _572
REMARK  233  A    between atoms: _571  and  _574
REMARK  234  A    between atoms: _574  and  _575
REMARK  235  A    between atoms: _580  and  _582
REMARK  236  A    between atoms: _582  and  _583
REMARK  237  A    between atoms: _582  and  _585
REMARK  238  A    between atoms: _585  and  _586
REMARK  239  A    between atoms: _588  and  _590
REMARK  240  A    between atoms: _590  and  _591
REMARK  241  A    between atoms: _590  and  _593
REMARK  242  A    between atoms: _593  and  _594
REMARK  243  A    between atoms: _594  and  _595
REMARK  244  A    between atoms: _600  and  _602
REMARK  245  A    between atoms: _602  and  _603
REMARK  246  A    between atoms: _602  and  _605
REMARK  247  A    between atoms: _605  and  _606
REMARK  248  A    between atoms: _611  and  _612
REMARK  249  A    between atoms: _614  and  _616
REMARK  250  A    between atoms: _616  and  _617
REMARK  251  A    between atoms: _616  and  _619
REMARK  252  A    between atoms: _619  and  _620
REMARK  253  A    between atoms: _620  and  _621
REMARK  254  A    between atoms: _621  and  _622
REMARK  255  A    between atoms: _631  and  _633
REMARK  256  A    between atoms: _633  and  _634
REMARK  257  A    between atoms: _633  and  _636
REMARK  258  A    between atoms: _636  and  _637
REMARK  259  A    between atoms: _640  and  _642
REMARK  260  A    between atoms: _642  and  _643
REMARK  261  A    between atoms: _642  and  _645
REMARK  262  A    between atoms: _647  and  _649
REMARK  263  A    between atoms: _649  and  _650
REMARK  264  A    between atoms: _649  and  _652
REMARK  265  A    between atoms: _652  and  _653
REMARK  266  A    between atoms: _653  and  _654
REMARK  267  A    between atoms: _654  and  _655
REMARK  268  A    between atoms: _655  and  _656
REMARK  269  A    between atoms: _660  and  _662
REMARK  270  A    between atoms: _662  and  _663
REMARK  271  A    between atoms: _662  and  _665
REMARK  272  A    between atoms: _665  and  _666
REMARK  273  A    between atoms: _669  and  _671
REMARK  274  A    between atoms: _671  and  _672
REMARK  275  A    between atoms: _671  and  _674
REMARK  276  A    between atoms: _674  and  _675
REMARK  277  A    between atoms: _678  and  _680
REMARK  278  A    between atoms: _680  and  _681
REMARK  279  A    between atoms: _680  and  _683
REMARK  280  A    between atoms: _686  and  _688
REMARK  281  A    between atoms: _688  and  _689
REMARK  282  A    between atoms: _688  and  _691
REMARK  283  A    between atoms: _691  and  _692
REMARK  284  A    between atoms: _695  and  _697
REMARK  285  A    between atoms: _697  and  _698
REMARK  286  A    between atoms: _697  and  _700
REMARK  287  A    between atoms: _700  and  _701
REMARK                            x       y       z     vdW  Elec       q    Type
REMARK                         _______ _______ _______ _____ _____    ______ ____
ROOT
ATOM      1  CB  PHE A   1       0.339  24.402  39.462  0.00  0.00    +0.051 C 
ENDROOT
BRANCH   1   2
ATOM      2  CG  PHE A   1       1.696  23.791  39.546  0.00  0.00    -0.020 A 
ATOM      3  CD2 PHE A   1       2.560  24.132  40.591  0.00  0.00    -0.004 A 
ATOM      4  CE2 PHE A   1       3.811  23.519  40.715  0.00  0.00    -0.000 A 
ATOM      5  CZ  PHE A   1       4.202  22.562  39.791  0.00  0.00    -0.000 A 
ATOM      6  CE1 PHE A   1       3.352  22.219  38.743  0.00  0.00    -0.000 A 
ATOM      7  CD1 PHE A   1       2.104  22.833  38.625  0.00  0.00    -0.004 A 
ENDBRANCH   1   2
BRANCH   1   8
ATOM      8  CA  PHE A   1      -0.590  23.963  40.595  0.00  0.00    +0.137 C 
BRANCH   8   9
ATOM      9  N   PHE A   1      -0.714  22.512  40.587  0.00  0.00    -0.239 NA
ATOM     10  H   PHE A   1      -0.971  22.012  39.712  0.00  0.00    +0.142 HD
ENDBRANCH   8   9
BRANCH   8  11
ATOM     11  C   PHE A   1      -1.881  24.755  40.531  0.00  0.00    +0.224 C 
ATOM     12  O   PHE A   1      -1.865  25.959  40.675  0.00  0.00    -0.287 OA
ENDBRANCH   8  11
ENDBRANCH   1   8
TORSDOF 4
REMARK  Name = ../refined-set-2016/1ie9/1ie9_pocket.pdb
REMARK  287 active torsions:
REMARK  status: ('A' for Active; 'I' for Inactive)
REMARK    1  A    between atoms: _1  and  _3
REMARK    2  A    between atoms: _3  and  _4
REMARK    3  A    between atoms: _3  and  _6
REMARK    4  A    between atoms: _6  and  _7
REMARK    5  A    between atoms: _10  and  _12
REMARK    6  A    between atoms: _12  and  _13
REMARK    7  A    between atoms: _12  and  _15
REMARK    8  A    between atoms: _15  and  _16
REMARK    9  A    between atoms: _21  and  _22
REMARK   10  A    between atoms: _24  and  _26
REMARK   11  A    between atoms: _26  and  _27
REMARK   12  A    between atoms: _26  and  _29
REMARK   13  A    between atoms: _29  and  _30
REMARK   14  A    between atoms: _34  and  _35
REMARK   15  A    between atoms: _40  and  _42
REMARK   16  A    between atoms: _42  and  _43
REMARK   17  A    between atoms: _42  and  _45
REMARK   18  A    between atoms: _45  and  _46
REMARK   19  A    between atoms: _51  and  _52
REMARK   20  A    between atoms: _54  and  _56
REMARK   21  A    between atoms: _56  and  _57
REMARK   22  A    between atoms: _56  and  _59
REMARK   23  A    between atoms: _59  and  _60
REMARK   24  A    between atoms: _66  and  _68
REMARK   25  A    between atoms: _68  and  _69
REMARK   26  A    between atoms: _68  and  _71
REMARK   27  A    between atoms: _71  and  _72
REMARK   28  A    between atoms: _78  and  _80
REMARK   29  A    between atoms: _80  and  _81
REMARK   30  A    between atoms: _80  and  _83
REMARK   31  A    between atoms: _83  and  _84
REMARK   32  A    between atoms: _84  and  _85
REMARK   33  A    between atoms: _85  and  _86
REMARK   34  A    between atoms: _95  and  _97
REMARK   35  A    between atoms: _97  and  _98
REMARK   36  A    between atoms: _97  and  _100
REMARK   37  A    between atoms: _100  and  _101
REMARK   38  A    between atoms: _104  and  _106
REMARK   39  A    between atoms: _106  and  _107
REMARK   40  A    between atoms: _106  and  _109
REMARK   41  A    between atoms: _109  and  _110
REMARK   42  A    between atoms: _110  and  _111
REMARK   43  A    between atoms: _113  and  _115
REMARK   44  A    between atoms: _115  and  _116
REMARK   45  A    between atoms: _115  and  _118
REMARK   46  A    between atoms: _118  and  _119
REMARK   47  A    between atoms: _123  and  _124
REMARK   48  A    between atoms: _129  and  _131
REMARK   49  A    between atoms: _131  and  _132
REMARK   50  A    between atoms: _131  and  _134
REMARK   51  A    between atoms: _134  and  _135
REMARK   52  A    between atoms: _140  and  _142
REMARK   53  A    between atoms: _142  and  _143
REMARK   54  A    between atoms: _142  and  _145
REMARK   55  A    between atoms: _145  and  _146
REMARK   56  A    between atoms: _149  and  _151
REMARK   57  A    between atoms: _151  and  _152
REMARK   58  A    between atoms: _155  and  _157
REMARK   59  A    between atoms: _157  and  _158
REMARK   60  A    between atoms: _157  and  _160
REMARK   61  A    between atoms: _160  and  _161
REMARK   62  A    between atoms: _164  and  _166
REMARK   63  A    between atoms: _166  and  _167
REMARK   64  A    between atoms: _166  and  _169
REMARK   65  A    between atoms: _169  and  _170
REMARK   66  A    between atoms: _173  and  _175
REMARK   67  A    between atoms: _175  and  _176
REMARK   68  A    between atoms: _175  and  _178
REMARK   69  A    between atoms: _181  and  _183
REMARK   70  A    between atoms: _183  and  _184
REMARK   71  A    between atoms: _183  and  _186
REMARK   72  A    between atoms: _186  and  _187
REMARK   73  A    between atoms: _189  and  _191
REMARK   74  A    between atoms: _191  and  _192
REMARK   75  A    between atoms: _191  and  _194
REMARK   76  A    between atoms: _194  and  _195
REMARK   77  A    between atoms: _200  and  _201
REMARK   78  A    between atoms: _203  and  _205
REMARK   79  A    between atoms: _205  and  _206
REMARK   80  A    between atoms: _205  and  _208
REMARK   81  A    between atoms: _208  and  _209
REMARK   82  A    between atoms: _211  and  _213
REMARK   83  A    between atoms: _213  and  _214
REMARK   84  A    between atoms: _213  and  _216
REMARK   85  A    between atoms: _216  and  _217
REMARK   86  A    between atoms: _220  and  _222
REMARK   87  A    between atoms: _222  and  _223
REMARK   88  A    between atoms: _222  and  _225
REMARK   89  A    between atoms: _225  and  _226
REMARK   90  A    between atoms: _226  and  _227
REMARK   91  A    between atoms: _227  and  _228
REMARK   92  A    between atoms: _228  and  _229
REMARK   93  A    between atoms: _233  and  _235
REMARK   94  A    between atoms: _235  and  _236
REMARK   95  A    between atoms: _235  and  _238
REMARK   96  A    between atoms: _241  and  _243
REMARK   97  A    between atoms: _243  and  _244
REMARK   98  A    between atoms: _247  and  _249
REMARK   99  A    between atoms: _249  and  _250
REMARK  100  A    between atoms: _249  and  _252
REMARK  101  A    between atoms: _252  and  _253
REMARK  102  A    between atoms: _256  and  _258
REMARK  103  A    between atoms: _258  and  _259
REMARK  104  A    between atoms: _258  and  _261
REMARK  105  A    between atoms: _261  and  _262
REMARK  106  A    between atoms: _262  and  _263
REMARK  107  A    between atoms: _266  and  _268
REMARK  108  A    between atoms: _268  and  _269
REMARK  109  A    between atoms: _268  and  _271
REMARK  110  A    between atoms: _274  and  _276
REMARK  111  A    between atoms: _276  and  _277
REMARK  112  A    between atoms: _276  and  _279
REMARK  113  A    between atoms: _279  and  _280
REMARK  114  A    between atoms: _283  and  _285
REMARK  115  A    between atoms: _285  and  _286
REMARK  116  A    between atoms: _285  and  _288
REMARK  117  A    between atoms: _288  and  _289
REMARK  118  A    between atoms: _289  and  _290
REMARK  119  A    between atoms: _292  and  _294
REMARK  120  A    between atoms: _294  and  _295
REMARK  121  A    between atoms: _294  and  _297
REMARK  122  A    between atoms: _297  and  _298
REMARK  123  A    between atoms: _301  and  _303
REMARK  124  A    between atoms: _303  and  _304
REMARK  125  A    between atoms: _303  and  _306
REMARK  126  A    between atoms: _306  and  _307
REMARK  127  A    between atoms: _307  and  _308
REMARK  128  A    between atoms: _308  and  _309
REMARK  129  A    between atoms: _318  and  _320
REMARK  130  A    between atoms: _320  and  _321
REMARK  131  A    between atoms: _320  and  _323
REMARK  132  A    between atoms: _323  and  _324
REMARK  133  A    between atoms: _326  and  _328
REMARK  134  A    between atoms: _328  and  _329
REMARK  135  A    between atoms: _328  and  _331
REMARK  136  A    between atoms: _331  and  _332
REMARK  137  A    between atoms: _337  and  _339
REMARK  138  A    between atoms: _339  and  _340
REMARK  139  A    between atoms: _339  and  _342
REMARK  140  A    between atoms: _342  and  _343
REMARK  141  A    between atoms: _343  and  _344
REMARK  142  A    between atoms: _347  and  _349
REMARK  143  A    between atoms: _349  and  _350
REMARK  144  A    between atoms: _349  and  _352
REMARK  145  A    between atoms: _352  and  _353
REMARK  146  A    between atoms: _355  and  _357
REMARK  147  A    between atoms: _357  and  _358
REMARK  148  A    between atoms: _357  and  _360
REMARK  149  A    between atoms: _360  and  _361
REMARK  150  A    between atoms: _367  and  _369
REMARK  151  A    between atoms: _369  and  _370
REMARK  152  A    between atoms: _369  and  _372
REMARK  153  A    between atoms: _372  and  _373
REMARK  154  A    between atoms: _375  and  _377
REMARK  155  A    between atoms: _377  and  _378
REMARK  156  A    between atoms: _377  and  _380
REMARK  157  A    between atoms: _380  and  _381
REMARK  158  A    between atoms: _391  and  _393
REMARK  159  A    between atoms: _393  and  _394
REMARK  160  A    between atoms: _393  and  _396
REMARK  161  A    between atoms: _396  and  _397
REMARK  162  A    between atoms: _400  and  _402
REMARK  163  A    between atoms: _402  and  _403
REMARK  164  A    between atoms: _402  and  _405
REMARK  165  A    between atoms: _407  and  _409
REMARK  166  A    between atoms: _409  and  _410
REMARK  167  A    between atoms: _409  and  _412
REMARK  168  A    between atoms: _412  and  _413
REMARK  169  A    between atoms: _418  and  _419
REMARK  170  A    between atoms: _421  and  _423
REMARK  171  A    between atoms: _423  and  _424
REMARK  172  A    between atoms: _423  and  _426
REMARK  173  A    between atoms: _426  and  _427
REMARK  174  A    between atoms: _427  and  _428
REMARK  175  A    between atoms: _428  and  _429
REMARK  176  A    between atoms: _429  and  _430
REMARK  177  A    between atoms: _434  and  _436
REMARK  178  A    between atoms: _436  and  _437
REMARK  179  A    between atoms: _436  and  _439
REMARK  180  A    between atoms: _439  and  _440
REMARK  181  A    between atoms: _445  and  _446
REMARK  182  A    between atoms: _448  and  _450
REMARK  183  A    between atoms: _450  and  _451
REMARK  184  A    between atoms: _450  and  _453
REMARK  185  A    between atoms: _453  and  _454
REMARK  186  A    between atoms: _454  and  _455
REMARK  187  A    between atoms: _455  and  _456
REMARK  188  A    between atoms: _465  and  _467
REMARK  189  A    between atoms: _467  and  _468
REMARK  190  A    between atoms: _467  and  _470
REMARK  191  A    between atoms: _473  and  _475
REMARK  192  A    between atoms: _475  and  _476
REMARK  193  A    between atoms: _475  and  _478
REMARK  194  A    between atoms: _478  and  _479
REMARK  195  A    between atoms: _482  and  _484
REMARK  196  A    between atoms: _484  and  _485
REMARK  197  A    between atoms: _484  and  _487
REMARK  198  A    between atoms: _490  and  _492
REMARK  199  A    between atoms: _492  and  _493
REMARK  200  A    between atoms: _492  and  _495
REMARK  201  A    between atoms: _495  and  _496
REMARK  202  A    between atoms: _499  and  _501
REMARK  203  A    between atoms: _501  and  _502
REMARK  204  A    between atoms: _505  and  _507
REMARK  205  A    between atoms: _507  and  _508
REMARK  206  A    between atoms: _510  and  _512
REMARK  207  A    between atoms: _512  and  _513
REMARK  208  A    between atoms: _512  and  _515
REMARK  209  A    between atoms: _515  and  _516
REMARK  210  A    between atoms: _521  and  _523
REMARK  211  A    between atoms: _523  and  _524
REMARK  212  A    between atoms: _523  and  _526
REMARK  213  A    between atoms: _526  and  _527
REMARK  214  A    between atoms: _530  and  _532
REMARK  215  A    between atoms: _532  and  _533
REMARK  216  A    between atoms: _532  and  _535
REMARK  217  A    between atoms: _535  and  _536
REMARK  218  A    between atoms: _539  and  _541
REMARK  219  A    between atoms: _541  and  _542
REMARK  220  A    between atoms: _541  and  _544
REMARK  221  A    between atoms: _544  and  _545
REMARK  222  A    between atoms: _548  and  _550
REMARK  223  A    between atoms: _550  and  _551
REMARK  224  A    between atoms: _550  and  _553
REMARK  225  A    between atoms: _553  and  _554
REMARK  226  A    between atoms: _554  and  _555
REMARK  227  A    between atoms: _560  and  _562
REMARK  228  A    between atoms: _562  and  _563
REMARK  229  A    between atoms: _562  and  _565
REMARK  230  A    between atoms: _565  and  _566
REMARK  231  A    between atoms: _569  and  _571
REMARK  232  A    between atoms: _571  and  _572
REMARK  233  A    between atoms: _571  and  _574
REMARK  234  A    between atoms: _574  and  _575
REMARK  235  A    between atoms: _580  and  _582
REMARK  236  A    between atoms: _582  and  _583
REMARK  237  A    between atoms: _582  and  _585
REMARK  238  A    between atoms: _585  and  _586
REMARK  239  A    between atoms: _588  and  _590
REMARK  240  A    between atoms: _590  and  _591
REMARK  241  A    between atoms: _590  and  _593
REMARK  242  A    between atoms: _593  and  _594
REMARK  243  A    between atoms: _594  and  _595
REMARK  244  A    between atoms: _600  and  _602
REMARK  245  A    between atoms: _602  and  _603
REMARK  246  A    between atoms: _602  and  _605
REMARK  247  A    between atoms: _605  and  _606
REMARK  248  A    between atoms: _611  and  _612
REMARK  249  A    between atoms: _614  and  _616
REMARK  250  A    between atoms: _616  and  _617
REMARK  251  A    between atoms: _616  and  _619
REMARK  252  A    between atoms: _619  and  _620
REMARK  253  A    between atoms: _620  and  _621
REMARK  254  A    between atoms: _621  and  _622
REMARK  255  A    between atoms: _631  and  _633
REMARK  256  A    between atoms: _633  and  _634
REMARK  257  A    between atoms: _633  and  _636
REMARK  258  A    between atoms: _636  and  _637
REMARK  259  A    between atoms: _640  and  _642
REMARK  260  A    between atoms: _642  and  _643
REMARK  261  A    between atoms: _642  and  _645
REMARK  262  A    between atoms: _647  and  _649
REMARK  263  A    between atoms: _649  and  _650
REMARK  264  A    between atoms: _649  and  _652
REMARK  265  A    between atoms: _652  and  _653
REMARK  266  A    between atoms: _653  and  _654
REMARK  267  A    between atoms: _654  and  _655
REMARK  268  A    between atoms: _655  and  _656
REMARK  269  A    between atoms: _660  and  _662
REMARK  270  A    between atoms: _662  and  _663
REMARK  271  A    between atoms: _662  and  _665
REMARK  272  A    between atoms: _665  and  _666
REMARK  273  A    between atoms: _669  and  _671
REMARK  274  A    between atoms: _671  and  _672
REMARK  275  A    between atoms: _671  and  _674
REMARK  276  A    between atoms: _674  and  _675
REMARK  277  A    between atoms: _678  and  _680
REMARK  278  A    between atoms: _680  and  _681
REMARK  279  A    between atoms: _680  and  _683
REMARK  280  A    between atoms: _686  and  _688
REMARK  281  A    between atoms: _688  and  _689
REMARK  282  A    between atoms: _688  and  _691
REMARK  283  A    between atoms: _691  and  _692
REMARK  284  A    between atoms: _695  and  _697
REMARK  285  A    between atoms: _697  and  _698
REMARK  286  A    between atoms: _697  and  _700
REMARK  287  A    between atoms: _700  and  _701
REMARK                            x       y       z     vdW  Elec       q    Type
REMARK                         _______ _______ _______ _____ _____    ______ ____
ROOT
ATOM      1  O   HOH     1      14.284   9.849  30.689  0.00  0.00    +0.000 OA
ENDROOT
TORSDOF 0
REMARK  Name = ../refined-set-2016/1ie9/1ie9_pocket.pdb
REMARK  287 active torsions:
REMARK  status: ('A' for Active; 'I' for Inactive)
REMARK    1  A    between atoms: _1  and  _3
REMARK    2  A    between atoms: _3  and  _4
REMARK    3  A    between atoms: _3  and  _6
REMARK    4  A    between atoms: _6  and  _7
REMARK    5  A    between atoms: _10  and  _12
REMARK    6  A    between atoms: _12  and  _13
REMARK    7  A    between atoms: _12  and  _15
REMARK    8  A    between atoms: _15  and  _16
REMARK    9  A    between atoms: _21  and  _22
REMARK   10  A    between atoms: _24  and  _26
REMARK   11  A    between atoms: _26  and  _27
REMARK   12  A    between atoms: _26  and  _29
REMARK   13  A    between atoms: _29  and  _30
REMARK   14  A    between atoms: _34  and  _35
REMARK   15  A    between atoms: _40  and  _42
REMARK   16  A    between atoms: _42  and  _43
REMARK   17  A    between atoms: _42  and  _45
REMARK   18  A    between atoms: _45  and  _46
REMARK   19  A    between atoms: _51  and  _52
REMARK   20  A    between atoms: _54  and  _56
REMARK   21  A    between atoms: _56  and  _57
REMARK   22  A    between atoms: _56  and  _59
REMARK   23  A    between atoms: _59  and  _60
REMARK   24  A    between atoms: _66  and  _68
REMARK   25  A    between atoms: _68  and  _69
REMARK   26  A    between atoms: _68  and  _71
REMARK   27  A    between atoms: _71  and  _72
REMARK   28  A    between atoms: _78  and  _80
REMARK   29  A    between atoms: _80  and  _81
REMARK   30  A    between atoms: _80  and  _83
REMARK   31  A    between atoms: _83  and  _84
REMARK   32  A    between atoms: _84  and  _85
REMARK   33  A    between atoms: _85  and  _86
REMARK   34  A    between atoms: _95  and  _97
REMARK   35  A    between atoms: _97  and  _98
REMARK   36  A    between atoms: _97  and  _100
REMARK   37  A    between atoms: _100  and  _101
REMARK   38  A    between atoms: _104  and  _106
REMARK   39  A    between atoms: _106  and  _107
REMARK   40  A    between atoms: _106  and  _109
REMARK   41  A    between atoms: _109  and  _110
REMARK   42  A    between atoms: _110  and  _111
REMARK   43  A    between atoms: _113  and  _115
REMARK   44  A    between atoms: _115  and  _116
REMARK   45  A    between atoms: _115  and  _118
REMARK   46  A    between atoms: _118  and  _119
REMARK   47  A    between atoms: _123  and  _124
REMARK   48  A    between atoms: _129  and  _131
REMARK   49  A    between atoms: _131  and  _132
REMARK   50  A    between atoms: _131  and  _134
REMARK   51  A    between atoms: _134  and  _135
REMARK   52  A    between atoms: _140  and  _142
REMARK   53  A    between atoms: _142  and  _143
REMARK   54  A    between atoms: _142  and  _145
REMARK   55  A    between atoms: _145  and  _146
REMARK   56  A    between atoms: _149  and  _151
REMARK   57  A    between atoms: _151  and  _152
REMARK   58  A    between atoms: _155  and  _157
REMARK   59  A    between atoms: _157  and  _158
REMARK   60  A    between atoms: _157  and  _160
REMARK   61  A    between atoms: _160  and  _161
REMARK   62  A    between atoms: _164  and  _166
REMARK   63  A    between atoms: _166  and  _167
REMARK   64  A    between atoms: _166  and  _169
REMARK   65  A    between atoms: _169  and  _170
REMARK   66  A    between atoms: _173  and  _175
REMARK   67  A    between atoms: _175  and  _176
REMARK   68  A    between atoms: _175  and  _178
REMARK   69  A    between atoms: _181  and  _183
REMARK   70  A    between atoms: _183  and  _184
REMARK   71  A    between atoms: _183  and  _186
REMARK   72  A    between atoms: _186  and  _187
REMARK   73  A    between atoms: _189  and  _191
REMARK   74  A    between atoms: _191  and  _192
REMARK   75  A    between atoms: _191  and  _194
REMARK   76  A    between atoms: _194  and  _195
REMARK   77  A    between atoms: _200  and  _201
REMARK   78  A    between atoms: _203  and  _205
REMARK   79  A    between atoms: _205  and  _206
REMARK   80  A    between atoms: _205  and  _208
REMARK   81  A    between atoms: _208  and  _209
REMARK   82  A    between atoms: _211  and  _213
REMARK   83  A    between atoms: _213  and  _214
REMARK   84  A    between atoms: _213  and  _216
REMARK   85  A    between atoms: _216  and  _217
REMARK   86  A    between atoms: _220  and  _222
REMARK   87  A    between atoms: _222  and  _223
REMARK   88  A    between atoms: _222  and  _225
REMARK   89  A    between atoms: _225  and  _226
REMARK   90  A    between atoms: _226  and  _227
REMARK   91  A    between atoms: _227  and  _228
REMARK   92  A    between atoms: _228  and  _229
REMARK   93  A    between atoms: _233  and  _235
REMARK   94  A    between atoms: _235  and  _236
REMARK   95  A    between atoms: _235  and  _238
REMARK   96  A    between atoms: _241  and  _243
REMARK   97  A    between atoms: _243  and  _244
REMARK   98  A    between atoms: _247  and  _249
REMARK   99  A    between atoms: _249  and  _250
REMARK  100  A    between atoms: _249  and  _252
REMARK  101  A    between atoms: _252  and  _253
REMARK  102  A    between atoms: _256  and  _258
REMARK  103  A    between atoms: _258  and  _259
REMARK  104  A    between atoms: _258  and  _261
REMARK  105  A    between atoms: _261  and  _262
REMARK  106  A    between atoms: _262  and  _263
REMARK  107  A    between atoms: _266  and  _268
REMARK  108  A    between atoms: _268  and  _269
REMARK  109  A    between atoms: _268  and  _271
REMARK  110  A    between atoms: _274  and  _276
REMARK  111  A    between atoms: _276  and  _277
REMARK  112  A    between atoms: _276  and  _279
REMARK  113  A    between atoms: _279  and  _280
REMARK  114  A    between atoms: _283  and  _285
REMARK  115  A    between atoms: _285  and  _286
REMARK  116  A    between atoms: _285  and  _288
REMARK  117  A    between atoms: _288  and  _289
REMARK  118  A    between atoms: _289  and  _290
REMARK  119  A    between atoms: _292  and  _294
REMARK  120  A    between atoms: _294  and  _295
REMARK  121  A    between atoms: _294  and  _297
REMARK  122  A    between atoms: _297  and  _298
REMARK  123  A    between atoms: _301  and  _303
REMARK  124  A    between atoms: _303  and  _304
REMARK  125  A    between atoms: _303  and  _306
REMARK  126  A    between atoms: _306  and  _307
REMARK  127  A    between atoms: _307  and  _308
REMARK  128  A    between atoms: _308  and  _309
REMARK  129  A    between atoms: _318  and  _320
REMARK  130  A    between atoms: _320  and  _321
REMARK  131  A    between atoms: _320  and  _323
REMARK  132  A    between atoms: _323  and  _324
REMARK  133  A    between atoms: _326  and  _328
REMARK  134  A    between atoms: _328  and  _329
REMARK  135  A    between atoms: _328  and  _331
REMARK  136  A    between atoms: _331  and  _332
REMARK  137  A    between atoms: _337  and  _339
REMARK  138  A    between atoms: _339  and  _340
REMARK  139  A    between atoms: _339  and  _342
REMARK  140  A    between atoms: _342  and  _343
REMARK  141  A    between atoms: _343  and  _344
REMARK  142  A    between atoms: _347  and  _349
REMARK  143  A    between atoms: _349  and  _350
REMARK  144  A    between atoms: _349  and  _352
REMARK  145  A    between atoms: _352  and  _353
REMARK  146  A    between atoms: _355  and  _357
REMARK  147  A    between atoms: _357  and  _358
REMARK  148  A    between atoms: _357  and  _360
REMARK  149  A    between atoms: _360  and  _361
REMARK  150  A    between atoms: _367  and  _369
REMARK  151  A    between atoms: _369  and  _370
REMARK  152  A    between atoms: _369  and  _372
REMARK  153  A    between atoms: _372  and  _373
REMARK  154  A    between atoms: _375  and  _377
REMARK  155  A    between atoms: _377  and  _378
REMARK  156  A    between atoms: _377  and  _380
REMARK  157  A    between atoms: _380  and  _381
REMARK  158  A    between atoms: _391  and  _393
REMARK  159  A    between atoms: _393  and  _394
REMARK  160  A    between atoms: _393  and  _396
REMARK  161  A    between atoms: _396  and  _397
REMARK  162  A    between atoms: _400  and  _402
REMARK  163  A    between atoms: _402  and  _403
REMARK  164  A    between atoms: _402  and  _405
REMARK  165  A    between atoms: _407  and  _409
REMARK  166  A    between atoms: _409  and  _410
REMARK  167  A    between atoms: _409  and  _412
REMARK  168  A    between atoms: _412  and  _413
REMARK  169  A    between atoms: _418  and  _419
REMARK  170  A    between atoms: _421  and  _423
REMARK  171  A    between atoms: _423  and  _424
REMARK  172  A    between atoms: _423  and  _426
REMARK  173  A    between atoms: _426  and  _427
REMARK  174  A    between atoms: _427  and  _428
REMARK  175  A    between atoms: _428  and  _429
REMARK  176  A    between atoms: _429  and  _430
REMARK  177  A    between atoms: _434  and  _436
REMARK  178  A    between atoms: _436  and  _437
REMARK  179  A    between atoms: _436  and  _439
REMARK  180  A    between atoms: _439  and  _440
REMARK  181  A    between atoms: _445  and  _446
REMARK  182  A    between atoms: _448  and  _450
REMARK  183  A    between atoms: _450  and  _451
REMARK  184  A    between atoms: _450  and  _453
REMARK  185  A    between atoms: _453  and  _454
REMARK  186  A    between atoms: _454  and  _455
REMARK  187  A    between atoms: _455  and  _456
REMARK  188  A    between atoms: _465  and  _467
REMARK  189  A    between atoms: _467  and  _468
REMARK  190  A    between atoms: _467  and  _470
REMARK  191  A    between atoms: _473  and  _475
REMARK  192  A    between atoms: _475  and  _476
REMARK  193  A    between atoms: _475  and  _478
REMARK  194  A    between atoms: _478  and  _479
REMARK  195  A    between atoms: _482  and  _484
REMARK  196  A    between atoms: _484  and  _485
REMARK  197  A    between atoms: _484  and  _487
REMARK  198  A    between atoms: _490  and  _492
REMARK  199  A    between atoms: _492  and  _493
REMARK  200  A    between atoms: _492  and  _495
REMARK  201  A    between atoms: _495  and  _496
REMARK  202  A    between atoms: _499  and  _501
REMARK  203  A    between atoms: _501  and  _502
REMARK  204  A    between atoms: _505  and  _507
REMARK  205  A    between atoms: _507  and  _508
REMARK  206  A    between atoms: _510  and  _512
REMARK  207  A    between atoms: _512  and  _513
REMARK  208  A    between atoms: _512  and  _515
REMARK  209  A    between atoms: _515  and  _516
REMARK  210  A    between atoms: _521  and  _523
REMARK  211  A    between atoms: _523  and  _524
REMARK  212  A    between atoms: _523  and  _526
REMARK  213  A    between atoms: _526  and  _527
REMARK  214  A    between atoms: _530  and  _532
REMARK  215  A    between atoms: _532  and  _533
REMARK  216  A    between atoms: _532  and  _535
REMARK  217  A    between atoms: _535  and  _536
REMARK  218  A    between atoms: _539  and  _541
REMARK  219  A    between atoms: _541  and  _542
REMARK  220  A    between atoms: _541  and  _544
REMARK  221  A    between atoms: _544  and  _545
REMARK  222  A    between atoms: _548  and  _550
REMARK  223  A    between atoms: _550  and  _551
REMARK  224  A    between atoms: _550  and  _553
REMARK  225  A    between atoms: _553  and  _554
REMARK  226  A    between atoms: _554  and  _555
REMARK  227  A    between atoms: _560  and  _562
REMARK  228  A    between atoms: _562  and  _563
REMARK  229  A    between atoms: _562  and  _565
REMARK  230  A    between atoms: _565  and  _566
REMARK  231  A    between atoms: _569  and  _571
REMARK  232  A    between atoms: _571  and  _572
REMARK  233  A    between atoms: _571  and  _574
REMARK  234  A    between atoms: _574  and  _575
REMARK  235  A    between atoms: _580  and  _582
REMARK  236  A    between atoms: _582  and  _583
REMARK  237  A    between atoms: _582  and  _585
REMARK  238  A    between atoms: _585  and  _586
REMARK  239  A    between atoms: _588  and  _590
REMARK  240  A    between atoms: _590  and  _591
REMARK  241  A    between atoms: _590  and  _593
REMARK  242  A    between atoms: _593  and  _594
REMARK  243  A    between atoms: _594  and  _595
REMARK  244  A    between atoms: _600  and  _602
REMARK  245  A    between atoms: _602  and  _603
REMARK  246  A    between atoms: _602  and  _605
REMARK  247  A    between atoms: _605  and  _606
REMARK  248  A    between atoms: _611  and  _612
REMARK  249  A    between atoms: _614  and  _616
REMARK  250  A    between atoms: _616  and  _617
REMARK  251  A    between atoms: _616  and  _619
REMARK  252  A    between atoms: _619  and  _620
REMARK  253  A    between atoms: _620  and  _621
REMARK  254  A    between atoms: _621  and  _622
REMARK  255  A    between atoms: _631  and  _633
REMARK  256  A    between atoms: _633  and  _634
REMARK  257  A    between atoms: _633  and  _636
REMARK  258  A    between atoms: _636  and  _637
REMARK  259  A    between atoms: _640  and  _642
REMARK  260  A    between atoms: _642  and  _643
REMARK  261  A    between atoms: _642  and  _645
REMARK  262  A    between atoms: _647  and  _649
REMARK  263  A    between atoms: _649  and  _650
REMARK  264  A    between atoms: _649  and  _652
REMARK  265  A    between atoms: _652  and  _653
REMARK  266  A    between atoms: _653  and  _654
REMARK  267  A    between atoms: _654  and  _655
REMARK  268  A    between atoms: _655  and  _656
REMARK  269  A    between atoms: _660  and  _662
REMARK  270  A    between atoms: _662  and  _663
REMARK  271  A    between atoms: _662  and  _665
REMARK  272  A    between atoms: _665  and  _666
REMARK  273  A    between atoms: _669  and  _671
REMARK  274  A    between atoms: _671  and  _672
REMARK  275  A    between atoms: _671  and  _674
REMARK  276  A    between atoms: _674  and  _675
REMARK  277  A    between atoms: _678  and  _680
REMARK  278  A    between atoms: _680  and  _681
REMARK  279  A    between atoms: _680  and  _683
REMARK  280  A    between atoms: _686  and  _688
REMARK  281  A    between atoms: _688  and  _689
REMARK  282  A    between atoms: _688  and  _691
REMARK  283  A    between atoms: _691  and  _692
REMARK  284  A    between atoms: _695  and  _697
REMARK  285  A    between atoms: _697  and  _698
REMARK  286  A    between atoms: _697  and  _700
REMARK  287  A    between atoms: _700  and  _701
REMARK                            x       y       z     vdW  Elec       q    Type
REMARK                         _______ _______ _______ _____ _____    ______ ____
ROOT
ATOM      1  O   HOH     1      13.827  13.914  42.719  0.00  0.00    +0.000 OA
ENDROOT
TORSDOF 0
REMARK  Name = ../refined-set-2016/1ie9/1ie9_pocket.pdb
REMARK  287 active torsions:
REMARK  status: ('A' for Active; 'I' for Inactive)
REMARK    1  A    between atoms: _1  and  _3
REMARK    2  A    between atoms: _3  and  _4
REMARK    3  A    between atoms: _3  and  _6
REMARK    4  A    between atoms: _6  and  _7
REMARK    5  A    between atoms: _10  and  _12
REMARK    6  A    between atoms: _12  and  _13
REMARK    7  A    between atoms: _12  and  _15
REMARK    8  A    between atoms: _15  and  _16
REMARK    9  A    between atoms: _21  and  _22
REMARK   10  A    between atoms: _24  and  _26
REMARK   11  A    between atoms: _26  and  _27
REMARK   12  A    between atoms: _26  and  _29
REMARK   13  A    between atoms: _29  and  _30
REMARK   14  A    between atoms: _34  and  _35
REMARK   15  A    between atoms: _40  and  _42
REMARK   16  A    between atoms: _42  and  _43
REMARK   17  A    between atoms: _42  and  _45
REMARK   18  A    between atoms: _45  and  _46
REMARK   19  A    between atoms: _51  and  _52
REMARK   20  A    between atoms: _54  and  _56
REMARK   21  A    between atoms: _56  and  _57
REMARK   22  A    between atoms: _56  and  _59
REMARK   23  A    between atoms: _59  and  _60
REMARK   24  A    between atoms: _66  and  _68
REMARK   25  A    between atoms: _68  and  _69
REMARK   26  A    between atoms: _68  and  _71
REMARK   27  A    between atoms: _71  and  _72
REMARK   28  A    between atoms: _78  and  _80
REMARK   29  A    between atoms: _80  and  _81
REMARK   30  A    between atoms: _80  and  _83
REMARK   31  A    between atoms: _83  and  _84
REMARK   32  A    between atoms: _84  and  _85
REMARK   33  A    between atoms: _85  and  _86
REMARK   34  A    between atoms: _95  and  _97
REMARK   35  A    between atoms: _97  and  _98
REMARK   36  A    between atoms: _97  and  _100
REMARK   37  A    between atoms: _100  and  _101
REMARK   38  A    between atoms: _104  and  _106
REMARK   39  A    between atoms: _106  and  _107
REMARK   40  A    between atoms: _106  and  _109
REMARK   41  A    between atoms: _109  and  _110
REMARK   42  A    between atoms: _110  and  _111
REMARK   43  A    between atoms: _113  and  _115
REMARK   44  A    between atoms: _115  and  _116
REMARK   45  A    between atoms: _115  and  _118
REMARK   46  A    between atoms: _118  and  _119
REMARK   47  A    between atoms: _123  and  _124
REMARK   48  A    between atoms: _129  and  _131
REMARK   49  A    between atoms: _131  and  _132
REMARK   50  A    between atoms: _131  and  _134
REMARK   51  A    between atoms: _134  and  _135
REMARK   52  A    between atoms: _140  and  _142
REMARK   53  A    between atoms: _142  and  _143
REMARK   54  A    between atoms: _142  and  _145
REMARK   55  A    between atoms: _145  and  _146
REMARK   56  A    between atoms: _149  and  _151
REMARK   57  A    between atoms: _151  and  _152
REMARK   58  A    between atoms: _155  and  _157
REMARK   59  A    between atoms: _157  and  _158
REMARK   60  A    between atoms: _157  and  _160
REMARK   61  A    between atoms: _160  and  _161
REMARK   62  A    between atoms: _164  and  _166
REMARK   63  A    between atoms: _166  and  _167
REMARK   64  A    between atoms: _166  and  _169
REMARK   65  A    between atoms: _169  and  _170
REMARK   66  A    between atoms: _173  and  _175
REMARK   67  A    between atoms: _175  and  _176
REMARK   68  A    between atoms: _175  and  _178
REMARK   69  A    between atoms: _181  and  _183
REMARK   70  A    between atoms: _183  and  _184
REMARK   71  A    between atoms: _183  and  _186
REMARK   72  A    between atoms: _186  and  _187
REMARK   73  A    between atoms: _189  and  _191
REMARK   74  A    between atoms: _191  and  _192
REMARK   75  A    between atoms: _191  and  _194
REMARK   76  A    between atoms: _194  and  _195
REMARK   77  A    between atoms: _200  and  _201
REMARK   78  A    between atoms: _203  and  _205
REMARK   79  A    between atoms: _205  and  _206
REMARK   80  A    between atoms: _205  and  _208
REMARK   81  A    between atoms: _208  and  _209
REMARK   82  A    between atoms: _211  and  _213
REMARK   83  A    between atoms: _213  and  _214
REMARK   84  A    between atoms: _213  and  _216
REMARK   85  A    between atoms: _216  and  _217
REMARK   86  A    between atoms: _220  and  _222
REMARK   87  A    between atoms: _222  and  _223
REMARK   88  A    between atoms: _222  and  _225
REMARK   89  A    between atoms: _225  and  _226
REMARK   90  A    between atoms: _226  and  _227
REMARK   91  A    between atoms: _227  and  _228
REMARK   92  A    between atoms: _228  and  _229
REMARK   93  A    between atoms: _233  and  _235
REMARK   94  A    between atoms: _235  and  _236
REMARK   95  A    between atoms: _235  and  _238
REMARK   96  A    between atoms: _241  and  _243
REMARK   97  A    between atoms: _243  and  _244
REMARK   98  A    between atoms: _247  and  _249
REMARK   99  A    between atoms: _249  and  _250
REMARK  100  A    between atoms: _249  and  _252
REMARK  101  A    between atoms: _252  and  _253
REMARK  102  A    between atoms: _256  and  _258
REMARK  103  A    between atoms: _258  and  _259
REMARK  104  A    between atoms: _258  and  _261
REMARK  105  A    between atoms: _261  and  _262
REMARK  106  A    between atoms: _262  and  _263
REMARK  107  A    between atoms: _266  and  _268
REMARK  108  A    between atoms: _268  and  _269
REMARK  109  A    between atoms: _268  and  _271
REMARK  110  A    between atoms: _274  and  _276
REMARK  111  A    between atoms: _276  and  _277
REMARK  112  A    between atoms: _276  and  _279
REMARK  113  A    between atoms: _279  and  _280
REMARK  114  A    between atoms: _283  and  _285
REMARK  115  A    between atoms: _285  and  _286
REMARK  116  A    between atoms: _285  and  _288
REMARK  117  A    between atoms: _288  and  _289
REMARK  118  A    between atoms: _289  and  _290
REMARK  119  A    between atoms: _292  and  _294
REMARK  120  A    between atoms: _294  and  _295
REMARK  121  A    between atoms: _294  and  _297
REMARK  122  A    between atoms: _297  and  _298
REMARK  123  A    between atoms: _301  and  _303
REMARK  124  A    between atoms: _303  and  _304
REMARK  125  A    between atoms: _303  and  _306
REMARK  126  A    between atoms: _306  and  _307
REMARK  127  A    between atoms: _307  and  _308
REMARK  128  A    between atoms: _308  and  _309
REMARK  129  A    between atoms: _318  and  _320
REMARK  130  A    between atoms: _320  and  _321
REMARK  131  A    between atoms: _320  and  _323
REMARK  132  A    between atoms: _323  and  _324
REMARK  133  A    between atoms: _326  and  _328
REMARK  134  A    between atoms: _328  and  _329
REMARK  135  A    between atoms: _328  and  _331
REMARK  136  A    between atoms: _331  and  _332
REMARK  137  A    between atoms: _337  and  _339
REMARK  138  A    between atoms: _339  and  _340
REMARK  139  A    between atoms: _339  and  _342
REMARK  140  A    between atoms: _342  and  _343
REMARK  141  A    between atoms: _343  and  _344
REMARK  142  A    between atoms: _347  and  _349
REMARK  143  A    between atoms: _349  and  _350
REMARK  144  A    between atoms: _349  and  _352
REMARK  145  A    between atoms: _352  and  _353
REMARK  146  A    between atoms: _355  and  _357
REMARK  147  A    between atoms: _357  and  _358
REMARK  148  A    between atoms: _357  and  _360
REMARK  149  A    between atoms: _360  and  _361
REMARK  150  A    between atoms: _367  and  _369
REMARK  151  A    between atoms: _369  and  _370
REMARK  152  A    between atoms: _369  and  _372
REMARK  153  A    between atoms: _372  and  _373
REMARK  154  A    between atoms: _375  and  _377
REMARK  155  A    between atoms: _377  and  _378
REMARK  156  A    between atoms: _377  and  _380
REMARK  157  A    between atoms: _380  and  _381
REMARK  158  A    between atoms: _391  and  _393
REMARK  159  A    between atoms: _393  and  _394
REMARK  160  A    between atoms: _393  and  _396
REMARK  161  A    between atoms: _396  and  _397
REMARK  162  A    between atoms: _400  and  _402
REMARK  163  A    between atoms: _402  and  _403
REMARK  164  A    between atoms: _402  and  _405
REMARK  165  A    between atoms: _407  and  _409
REMARK  166  A    between atoms: _409  and  _410
REMARK  167  A    between atoms: _409  and  _412
REMARK  168  A    between atoms: _412  and  _413
REMARK  169  A    between atoms: _418  and  _419
REMARK  170  A    between atoms: _421  and  _423
REMARK  171  A    between atoms: _423  and  _424
REMARK  172  A    between atoms: _423  and  _426
REMARK  173  A    between atoms: _426  and  _427
REMARK  174  A    between atoms: _427  and  _428
REMARK  175  A    between atoms: _428  and  _429
REMARK  176  A    between atoms: _429  and  _430
REMARK  177  A    between atoms: _434  and  _436
REMARK  178  A    between atoms: _436  and  _437
REMARK  179  A    between atoms: _436  and  _439
REMARK  180  A    between atoms: _439  and  _440
REMARK  181  A    between atoms: _445  and  _446
REMARK  182  A    between atoms: _448  and  _450
REMARK  183  A    between atoms: _450  and  _451
REMARK  184  A    between atoms: _450  and  _453
REMARK  185  A    between atoms: _453  and  _454
REMARK  186  A    between atoms: _454  and  _455
REMARK  187  A    between atoms: _455  and  _456
REMARK  188  A    between atoms: _465  and  _467
REMARK  189  A    between atoms: _467  and  _468
REMARK  190  A    between atoms: _467  and  _470
REMARK  191  A    between atoms: _473  and  _475
REMARK  192  A    between atoms: _475  and  _476
REMARK  193  A    between atoms: _475  and  _478
REMARK  194  A    between atoms: _478  and  _479
REMARK  195  A    between atoms: _482  and  _484
REMARK  196  A    between atoms: _484  and  _485
REMARK  197  A    between atoms: _484  and  _487
REMARK  198  A    between atoms: _490  and  _492
REMARK  199  A    between atoms: _492  and  _493
REMARK  200  A    between atoms: _492  and  _495
REMARK  201  A    between atoms: _495  and  _496
REMARK  202  A    between atoms: _499  and  _501
REMARK  203  A    between atoms: _501  and  _502
REMARK  204  A    between atoms: _505  and  _507
REMARK  205  A    between atoms: _507  and  _508
REMARK  206  A    between atoms: _510  and  _512
REMARK  207  A    between atoms: _512  and  _513
REMARK  208  A    between atoms: _512  and  _515
REMARK  209  A    between atoms: _515  and  _516
REMARK  210  A    between atoms: _521  and  _523
REMARK  211  A    between atoms: _523  and  _524
REMARK  212  A    between atoms: _523  and  _526
REMARK  213  A    between atoms: _526  and  _527
REMARK  214  A    between atoms: _530  and  _532
REMARK  215  A    between atoms: _532  and  _533
REMARK  216  A    between atoms: _532  and  _535
REMARK  217  A    between atoms: _535  and  _536
REMARK  218  A    between atoms: _539  and  _541
REMARK  219  A    between atoms: _541  and  _542
REMARK  220  A    between atoms: _541  and  _544
REMARK  221  A    between atoms: _544  and  _545
REMARK  222  A    between atoms: _548  and  _550
REMARK  223  A    between atoms: _550  and  _551
REMARK  224  A    between atoms: _550  and  _553
REMARK  225  A    between atoms: _553  and  _554
REMARK  226  A    between atoms: _554  and  _555
REMARK  227  A    between atoms: _560  and  _562
REMARK  228  A    between atoms: _562  and  _563
REMARK  229  A    between atoms: _562  and  _565
REMARK  230  A    between atoms: _565  and  _566
REMARK  231  A    between atoms: _569  and  _571
REMARK  232  A    between atoms: _571  and  _572
REMARK  233  A    between atoms: _571  and  _574
REMARK  234  A    between atoms: _574  and  _575
REMARK  235  A    between atoms: _580  and  _582
REMARK  236  A    between atoms: _582  and  _583
REMARK  237  A    between atoms: _582  and  _585
REMARK  238  A    between atoms: _585  and  _586
REMARK  239  A    between atoms: _588  and  _590
REMARK  240  A    between atoms: _590  and  _591
REMARK  241  A    between atoms: _590  and  _593
REMARK  242  A    between atoms: _593  and  _594
REMARK  243  A    between atoms: _594  and  _595
REMARK  244  A    between atoms: _600  and  _602
REMARK  245  A    between atoms: _602  and  _603
REMARK  246  A    between atoms: _602  and  _605
REMARK  247  A    between atoms: _605  and  _606
REMARK  248  A    between atoms: _611  and  _612
REMARK  249  A    between atoms: _614  and  _616
REMARK  250  A    between atoms: _616  and  _617
REMARK  251  A    between atoms: _616  and  _619
REMARK  252  A    between atoms: _619  and  _620
REMARK  253  A    between atoms: _620  and  _621
REMARK  254  A    between atoms: _621  and  _622
REMARK  255  A    between atoms: _631  and  _633
REMARK  256  A    between atoms: _633  and  _634
REMARK  257  A    between atoms: _633  and  _636
REMARK  258  A    between atoms: _636  and  _637
REMARK  259  A    between atoms: _640  and  _642
REMARK  260  A    between atoms: _642  and  _643
REMARK  261  A    between atoms: _642  and  _645
REMARK  262  A    between atoms: _647  and  _649
REMARK  263  A    between atoms: _649  and  _650
REMARK  264  A    between atoms: _649  and  _652
REMARK  265  A    between atoms: _652  and  _653
REMARK  266  A    between atoms: _653  and  _654
REMARK  267  A    between atoms: _654  and  _655
REMARK  268  A    between atoms: _655  and  _656
REMARK  269  A    between atoms: _660  and  _662
REMARK  270  A    between atoms: _662  and  _663
REMARK  271  A    between atoms: _662  and  _665
REMARK  272  A    between atoms: _665  and  _666
REMARK  273  A    between atoms: _669  and  _671
REMARK  274  A    between atoms: _671  and  _672
REMARK  275  A    between atoms: _671  and  _674
REMARK  276  A    between atoms: _674  and  _675
REMARK  277  A    between atoms: _678  and  _680
REMARK  278  A    between atoms: _680  and  _681
REMARK  279  A    between atoms: _680  and  _683
REMARK  280  A    between atoms: _686  and  _688
REMARK  281  A    between atoms: _688  and  _689
REMARK  282  A    between atoms: _688  and  _691
REMARK  283  A    between atoms: _691  and  _692
REMARK  284  A    between atoms: _695  and  _697
REMARK  285  A    between atoms: _697  and  _698
REMARK  286  A    between atoms: _697  and  _700
REMARK  287  A    between atoms: _700  and  _701
REMARK                            x       y       z     vdW  Elec       q    Type
REMARK                         _______ _______ _______ _____ _____    ______ ____
ROOT
ATOM      1  O   HOH     1      19.090  15.403  39.954  0.00  0.00    +0.000 OA
ENDROOT
TORSDOF 0
REMARK  Name = ../refined-set-2016/1ie9/1ie9_pocket.pdb
REMARK  287 active torsions:
REMARK  status: ('A' for Active; 'I' for Inactive)
REMARK    1  A    between atoms: _1  and  _3
REMARK    2  A    between atoms: _3  and  _4
REMARK    3  A    between atoms: _3  and  _6
REMARK    4  A    between atoms: _6  and  _7
REMARK    5  A    between atoms: _10  and  _12
REMARK    6  A    between atoms: _12  and  _13
REMARK    7  A    between atoms: _12  and  _15
REMARK    8  A    between atoms: _15  and  _16
REMARK    9  A    between atoms: _21  and  _22
REMARK   10  A    between atoms: _24  and  _26
REMARK   11  A    between atoms: _26  and  _27
REMARK   12  A    between atoms: _26  and  _29
REMARK   13  A    between atoms: _29  and  _30
REMARK   14  A    between atoms: _34  and  _35
REMARK   15  A    between atoms: _40  and  _42
REMARK   16  A    between atoms: _42  and  _43
REMARK   17  A    between atoms: _42  and  _45
REMARK   18  A    between atoms: _45  and  _46
REMARK   19  A    between atoms: _51  and  _52
REMARK   20  A    between atoms: _54  and  _56
REMARK   21  A    between atoms: _56  and  _57
REMARK   22  A    between atoms: _56  and  _59
REMARK   23  A    between atoms: _59  and  _60
REMARK   24  A    between atoms: _66  and  _68
REMARK   25  A    between atoms: _68  and  _69
REMARK   26  A    between atoms: _68  and  _71
REMARK   27  A    between atoms: _71  and  _72
REMARK   28  A    between atoms: _78  and  _80
REMARK   29  A    between atoms: _80  and  _81
REMARK   30  A    between atoms: _80  and  _83
REMARK   31  A    between atoms: _83  and  _84
REMARK   32  A    between atoms: _84  and  _85
REMARK   33  A    between atoms: _85  and  _86
REMARK   34  A    between atoms: _95  and  _97
REMARK   35  A    between atoms: _97  and  _98
REMARK   36  A    between atoms: _97  and  _100
REMARK   37  A    between atoms: _100  and  _101
REMARK   38  A    between atoms: _104  and  _106
REMARK   39  A    between atoms: _106  and  _107
REMARK   40  A    between atoms: _106  and  _109
REMARK   41  A    between atoms: _109  and  _110
REMARK   42  A    between atoms: _110  and  _111
REMARK   43  A    between atoms: _113  and  _115
REMARK   44  A    between atoms: _115  and  _116
REMARK   45  A    between atoms: _115  and  _118
REMARK   46  A    between atoms: _118  and  _119
REMARK   47  A    between atoms: _123  and  _124
REMARK   48  A    between atoms: _129  and  _131
REMARK   49  A    between atoms: _131  and  _132
REMARK   50  A    between atoms: _131  and  _134
REMARK   51  A    between atoms: _134  and  _135
REMARK   52  A    between atoms: _140  and  _142
REMARK   53  A    between atoms: _142  and  _143
REMARK   54  A    between atoms: _142  and  _145
REMARK   55  A    between atoms: _145  and  _146
REMARK   56  A    between atoms: _149  and  _151
REMARK   57  A    between atoms: _151  and  _152
REMARK   58  A    between atoms: _155  and  _157
REMARK   59  A    between atoms: _157  and  _158
REMARK   60  A    between atoms: _157  and  _160
REMARK   61  A    between atoms: _160  and  _161
REMARK   62  A    between atoms: _164  and  _166
REMARK   63  A    between atoms: _166  and  _167
REMARK   64  A    between atoms: _166  and  _169
REMARK   65  A    between atoms: _169  and  _170
REMARK   66  A    between atoms: _173  and  _175
REMARK   67  A    between atoms: _175  and  _176
REMARK   68  A    between atoms: _175  and  _178
REMARK   69  A    between atoms: _181  and  _183
REMARK   70  A    between atoms: _183  and  _184
REMARK   71  A    between atoms: _183  and  _186
REMARK   72  A    between atoms: _186  and  _187
REMARK   73  A    between atoms: _189  and  _191
REMARK   74  A    between atoms: _191  and  _192
REMARK   75  A    between atoms: _191  and  _194
REMARK   76  A    between atoms: _194  and  _195
REMARK   77  A    between atoms: _200  and  _201
REMARK   78  A    between atoms: _203  and  _205
REMARK   79  A    between atoms: _205  and  _206
REMARK   80  A    between atoms: _205  and  _208
REMARK   81  A    between atoms: _208  and  _209
REMARK   82  A    between atoms: _211  and  _213
REMARK   83  A    between atoms: _213  and  _214
REMARK   84  A    between atoms: _213  and  _216
REMARK   85  A    between atoms: _216  and  _217
REMARK   86  A    between atoms: _220  and  _222
REMARK   87  A    between atoms: _222  and  _223
REMARK   88  A    between atoms: _222  and  _225
REMARK   89  A    between atoms: _225  and  _226
REMARK   90  A    between atoms: _226  and  _227
REMARK   91  A    between atoms: _227  and  _228
REMARK   92  A    between atoms: _228  and  _229
REMARK   93  A    between atoms: _233  and  _235
REMARK   94  A    between atoms: _235  and  _236
REMARK   95  A    between atoms: _235  and  _238
REMARK   96  A    between atoms: _241  and  _243
REMARK   97  A    between atoms: _243  and  _244
REMARK   98  A    between atoms: _247  and  _249
REMARK   99  A    between atoms: _249  and  _250
REMARK  100  A    between atoms: _249  and  _252
REMARK  101  A    between atoms: _252  and  _253
REMARK  102  A    between atoms: _256  and  _258
REMARK  103  A    between atoms: _258  and  _259
REMARK  104  A    between atoms: _258  and  _261
REMARK  105  A    between atoms: _261  and  _262
REMARK  106  A    between atoms: _262  and  _263
REMARK  107  A    between atoms: _266  and  _268
REMARK  108  A    between atoms: _268  and  _269
REMARK  109  A    between atoms: _268  and  _271
REMARK  110  A    between atoms: _274  and  _276
REMARK  111  A    between atoms: _276  and  _277
REMARK  112  A    between atoms: _276  and  _279
REMARK  113  A    between atoms: _279  and  _280
REMARK  114  A    between atoms: _283  and  _285
REMARK  115  A    between atoms: _285  and  _286
REMARK  116  A    between atoms: _285  and  _288
REMARK  117  A    between atoms: _288  and  _289
REMARK  118  A    between atoms: _289  and  _290
REMARK  119  A    between atoms: _292  and  _294
REMARK  120  A    between atoms: _294  and  _295
REMARK  121  A    between atoms: _294  and  _297
REMARK  122  A    between atoms: _297  and  _298
REMARK  123  A    between atoms: _301  and  _303
REMARK  124  A    between atoms: _303  and  _304
REMARK  125  A    between atoms: _303  and  _306
REMARK  126  A    between atoms: _306  and  _307
REMARK  127  A    between atoms: _307  and  _308
REMARK  128  A    between atoms: _308  and  _309
REMARK  129  A    between atoms: _318  and  _320
REMARK  130  A    between atoms: _320  and  _321
REMARK  131  A    between atoms: _320  and  _323
REMARK  132  A    between atoms: _323  and  _324
REMARK  133  A    between atoms: _326  and  _328
REMARK  134  A    between atoms: _328  and  _329
REMARK  135  A    between atoms: _328  and  _331
REMARK  136  A    between atoms: _331  and  _332
REMARK  137  A    between atoms: _337  and  _339
REMARK  138  A    between atoms: _339  and  _340
REMARK  139  A    between atoms: _339  and  _342
REMARK  140  A    between atoms: _342  and  _343
REMARK  141  A    between atoms: _343  and  _344
REMARK  142  A    between atoms: _347  and  _349
REMARK  143  A    between atoms: _349  and  _350
REMARK  144  A    between atoms: _349  and  _352
REMARK  145  A    between atoms: _352  and  _353
REMARK  146  A    between atoms: _355  and  _357
REMARK  147  A    between atoms: _357  and  _358
REMARK  148  A    between atoms: _357  and  _360
REMARK  149  A    between atoms: _360  and  _361
REMARK  150  A    between atoms: _367  and  _369
REMARK  151  A    between atoms: _369  and  _370
REMARK  152  A    between atoms: _369  and  _372
REMARK  153  A    between atoms: _372  and  _373
REMARK  154  A    between atoms: _375  and  _377
REMARK  155  A    between atoms: _377  and  _378
REMARK  156  A    between atoms: _377  and  _380
REMARK  157  A    between atoms: _380  and  _381
REMARK  158  A    between atoms: _391  and  _393
REMARK  159  A    between atoms: _393  and  _394
REMARK  160  A    between atoms: _393  and  _396
REMARK  161  A    between atoms: _396  and  _397
REMARK  162  A    between atoms: _400  and  _402
REMARK  163  A    between atoms: _402  and  _403
REMARK  164  A    between atoms: _402  and  _405
REMARK  165  A    between atoms: _407  and  _409
REMARK  166  A    between atoms: _409  and  _410
REMARK  167  A    between atoms: _409  and  _412
REMARK  168  A    between atoms: _412  and  _413
REMARK  169  A    between atoms: _418  and  _419
REMARK  170  A    between atoms: _421  and  _423
REMARK  171  A    between atoms: _423  and  _424
REMARK  172  A    between atoms: _423  and  _426
REMARK  173  A    between atoms: _426  and  _427
REMARK  174  A    between atoms: _427  and  _428
REMARK  175  A    between atoms: _428  and  _429
REMARK  176  A    between atoms: _429  and  _430
REMARK  177  A    between atoms: _434  and  _436
REMARK  178  A    between atoms: _436  and  _437
REMARK  179  A    between atoms: _436  and  _439
REMARK  180  A    between atoms: _439  and  _440
REMARK  181  A    between atoms: _445  and  _446
REMARK  182  A    between atoms: _448  and  _450
REMARK  183  A    between atoms: _450  and  _451
REMARK  184  A    between atoms: _450  and  _453
REMARK  185  A    between atoms: _453  and  _454
REMARK  186  A    between atoms: _454  and  _455
REMARK  187  A    between atoms: _455  and  _456
REMARK  188  A    between atoms: _465  and  _467
REMARK  189  A    between atoms: _467  and  _468
REMARK  190  A    between atoms: _467  and  _470
REMARK  191  A    between atoms: _473  and  _475
REMARK  192  A    between atoms: _475  and  _476
REMARK  193  A    between atoms: _475  and  _478
REMARK  194  A    between atoms: _478  and  _479
REMARK  195  A    between atoms: _482  and  _484
REMARK  196  A    between atoms: _484  and  _485
REMARK  197  A    between atoms: _484  and  _487
REMARK  198  A    between atoms: _490  and  _492
REMARK  199  A    between atoms: _492  and  _493
REMARK  200  A    between atoms: _492  and  _495
REMARK  201  A    between atoms: _495  and  _496
REMARK  202  A    between atoms: _499  and  _501
REMARK  203  A    between atoms: _501  and  _502
REMARK  204  A    between atoms: _505  and  _507
REMARK  205  A    between atoms: _507  and  _508
REMARK  206  A    between atoms: _510  and  _512
REMARK  207  A    between atoms: _512  and  _513
REMARK  208  A    between atoms: _512  and  _515
REMARK  209  A    between atoms: _515  and  _516
REMARK  210  A    between atoms: _521  and  _523
REMARK  211  A    between atoms: _523  and  _524
REMARK  212  A    between atoms: _523  and  _526
REMARK  213  A    between atoms: _526  and  _527
REMARK  214  A    between atoms: _530  and  _532
REMARK  215  A    between atoms: _532  and  _533
REMARK  216  A    between atoms: _532  and  _535
REMARK  217  A    between atoms: _535  and  _536
REMARK  218  A    between atoms: _539  and  _541
REMARK  219  A    between atoms: _541  and  _542
REMARK  220  A    between atoms: _541  and  _544
REMARK  221  A    between atoms: _544  and  _545
REMARK  222  A    between atoms: _548  and  _550
REMARK  223  A    between atoms: _550  and  _551
REMARK  224  A    between atoms: _550  and  _553
REMARK  225  A    between atoms: _553  and  _554
REMARK  226  A    between atoms: _554  and  _555
REMARK  227  A    between atoms: _560  and  _562
REMARK  228  A    between atoms: _562  and  _563
REMARK  229  A    between atoms: _562  and  _565
REMARK  230  A    between atoms: _565  and  _566
REMARK  231  A    between atoms: _569  and  _571
REMARK  232  A    between atoms: _571  and  _572
REMARK  233  A    between atoms: _571  and  _574
REMARK  234  A    between atoms: _574  and  _575
REMARK  235  A    between atoms: _580  and  _582
REMARK  236  A    between atoms: _582  and  _583
REMARK  237  A    between atoms: _582  and  _585
REMARK  238  A    between atoms: _585  and  _586
REMARK  239  A    between atoms: _588  and  _590
REMARK  240  A    between atoms: _590  and  _591
REMARK  241  A    between atoms: _590  and  _593
REMARK  242  A    between atoms: _593  and  _594
REMARK  243  A    between atoms: _594  and  _595
REMARK  244  A    between atoms: _600  and  _602
REMARK  245  A    between atoms: _602  and  _603
REMARK  246  A    between atoms: _602  and  _605
REMARK  247  A    between atoms: _605  and  _606
REMARK  248  A    between atoms: _611  and  _612
REMARK  249  A    between atoms: _614  and  _616
REMARK  250  A    between atoms: _616  and  _617
REMARK  251  A    between atoms: _616  and  _619
REMARK  252  A    between atoms: _619  and  _620
REMARK  253  A    between atoms: _620  and  _621
REMARK  254  A    between atoms: _621  and  _622
REMARK  255  A    between atoms: _631  and  _633
REMARK  256  A    between atoms: _633  and  _634
REMARK  257  A    between atoms: _633  and  _636
REMARK  258  A    between atoms: _636  and  _637
REMARK  259  A    between atoms: _640  and  _642
REMARK  260  A    between atoms: _642  and  _643
REMARK  261  A    between atoms: _642  and  _645
REMARK  262  A    between atoms: _647  and  _649
REMARK  263  A    between atoms: _649  and  _650
REMARK  264  A    between atoms: _649  and  _652
REMARK  265  A    between atoms: _652  and  _653
REMARK  266  A    between atoms: _653  and  _654
REMARK  267  A    between atoms: _654  and  _655
REMARK  268  A    between atoms: _655  and  _656
REMARK  269  A    between atoms: _660  and  _662
REMARK  270  A    between atoms: _662  and  _663
REMARK  271  A    between atoms: _662  and  _665
REMARK  272  A    between atoms: _665  and  _666
REMARK  273  A    between atoms: _669  and  _671
REMARK  274  A    between atoms: _671  and  _672
REMARK  275  A    between atoms: _671  and  _674
REMARK  276  A    between atoms: _674  and  _675
REMARK  277  A    between atoms: _678  and  _680
REMARK  278  A    between atoms: _680  and  _681
REMARK  279  A    between atoms: _680  and  _683
REMARK  280  A    between atoms: _686  and  _688
REMARK  281  A    between atoms: _688  and  _689
REMARK  282  A    between atoms: _688  and  _691
REMARK  283  A    between atoms: _691  and  _692
REMARK  284  A    between atoms: _695  and  _697
REMARK  285  A    between atoms: _697  and  _698
REMARK  286  A    between atoms: _697  and  _700
REMARK  287  A    between atoms: _700  and  _701
REMARK                            x       y       z     vdW  Elec       q    Type
REMARK                         _______ _______ _______ _____ _____    ______ ____
ROOT
ATOM      1  O   HOH     1      13.694   9.684  34.955  0.00  0.00    +0.000 OA
ENDROOT
TORSDOF 0
REMARK  Name = ../refined-set-2016/1ie9/1ie9_pocket.pdb
REMARK  287 active torsions:
REMARK  status: ('A' for Active; 'I' for Inactive)
REMARK    1  A    between atoms: _1  and  _3
REMARK    2  A    between atoms: _3  and  _4
REMARK    3  A    between atoms: _3  and  _6
REMARK    4  A    between atoms: _6  and  _7
REMARK    5  A    between atoms: _10  and  _12
REMARK    6  A    between atoms: _12  and  _13
REMARK    7  A    between atoms: _12  and  _15
REMARK    8  A    between atoms: _15  and  _16
REMARK    9  A    between atoms: _21  and  _22
REMARK   10  A    between atoms: _24  and  _26
REMARK   11  A    between atoms: _26  and  _27
REMARK   12  A    between atoms: _26  and  _29
REMARK   13  A    between atoms: _29  and  _30
REMARK   14  A    between atoms: _34  and  _35
REMARK   15  A    between atoms: _40  and  _42
REMARK   16  A    between atoms: _42  and  _43
REMARK   17  A    between atoms: _42  and  _45
REMARK   18  A    between atoms: _45  and  _46
REMARK   19  A    between atoms: _51  and  _52
REMARK   20  A    between atoms: _54  and  _56
REMARK   21  A    between atoms: _56  and  _57
REMARK   22  A    between atoms: _56  and  _59
REMARK   23  A    between atoms: _59  and  _60
REMARK   24  A    between atoms: _66  and  _68
REMARK   25  A    between atoms: _68  and  _69
REMARK   26  A    between atoms: _68  and  _71
REMARK   27  A    between atoms: _71  and  _72
REMARK   28  A    between atoms: _78  and  _80
REMARK   29  A    between atoms: _80  and  _81
REMARK   30  A    between atoms: _80  and  _83
REMARK   31  A    between atoms: _83  and  _84
REMARK   32  A    between atoms: _84  and  _85
REMARK   33  A    between atoms: _85  and  _86
REMARK   34  A    between atoms: _95  and  _97
REMARK   35  A    between atoms: _97  and  _98
REMARK   36  A    between atoms: _97  and  _100
REMARK   37  A    between atoms: _100  and  _101
REMARK   38  A    between atoms: _104  and  _106
REMARK   39  A    between atoms: _106  and  _107
REMARK   40  A    between atoms: _106  and  _109
REMARK   41  A    between atoms: _109  and  _110
REMARK   42  A    between atoms: _110  and  _111
REMARK   43  A    between atoms: _113  and  _115
REMARK   44  A    between atoms: _115  and  _116
REMARK   45  A    between atoms: _115  and  _118
REMARK   46  A    between atoms: _118  and  _119
REMARK   47  A    between atoms: _123  and  _124
REMARK   48  A    between atoms: _129  and  _131
REMARK   49  A    between atoms: _131  and  _132
REMARK   50  A    between atoms: _131  and  _134
REMARK   51  A    between atoms: _134  and  _135
REMARK   52  A    between atoms: _140  and  _142
REMARK   53  A    between atoms: _142  and  _143
REMARK   54  A    between atoms: _142  and  _145
REMARK   55  A    between atoms: _145  and  _146
REMARK   56  A    between atoms: _149  and  _151
REMARK   57  A    between atoms: _151  and  _152
REMARK   58  A    between atoms: _155  and  _157
REMARK   59  A    between atoms: _157  and  _158
REMARK   60  A    between atoms: _157  and  _160
REMARK   61  A    between atoms: _160  and  _161
REMARK   62  A    between atoms: _164  and  _166
REMARK   63  A    between atoms: _166  and  _167
REMARK   64  A    between atoms: _166  and  _169
REMARK   65  A    between atoms: _169  and  _170
REMARK   66  A    between atoms: _173  and  _175
REMARK   67  A    between atoms: _175  and  _176
REMARK   68  A    between atoms: _175  and  _178
REMARK   69  A    between atoms: _181  and  _183
REMARK   70  A    between atoms: _183  and  _184
REMARK   71  A    between atoms: _183  and  _186
REMARK   72  A    between atoms: _186  and  _187
REMARK   73  A    between atoms: _189  and  _191
REMARK   74  A    between atoms: _191  and  _192
REMARK   75  A    between atoms: _191  and  _194
REMARK   76  A    between atoms: _194  and  _195
REMARK   77  A    between atoms: _200  and  _201
REMARK   78  A    between atoms: _203  and  _205
REMARK   79  A    between atoms: _205  and  _206
REMARK   80  A    between atoms: _205  and  _208
REMARK   81  A    between atoms: _208  and  _209
REMARK   82  A    between atoms: _211  and  _213
REMARK   83  A    between atoms: _213  and  _214
REMARK   84  A    between atoms: _213  and  _216
REMARK   85  A    between atoms: _216  and  _217
REMARK   86  A    between atoms: _220  and  _222
REMARK   87  A    between atoms: _222  and  _223
REMARK   88  A    between atoms: _222  and  _225
REMARK   89  A    between atoms: _225  and  _226
REMARK   90  A    between atoms: _226  and  _227
REMARK   91  A    between atoms: _227  and  _228
REMARK   92  A    between atoms: _228  and  _229
REMARK   93  A    between atoms: _233  and  _235
REMARK   94  A    between atoms: _235  and  _236
REMARK   95  A    between atoms: _235  and  _238
REMARK   96  A    between atoms: _241  and  _243
REMARK   97  A    between atoms: _243  and  _244
REMARK   98  A    between atoms: _247  and  _249
REMARK   99  A    between atoms: _249  and  _250
REMARK  100  A    between atoms: _249  and  _252
REMARK  101  A    between atoms: _252  and  _253
REMARK  102  A    between atoms: _256  and  _258
REMARK  103  A    between atoms: _258  and  _259
REMARK  104  A    between atoms: _258  and  _261
REMARK  105  A    between atoms: _261  and  _262
REMARK  106  A    between atoms: _262  and  _263
REMARK  107  A    between atoms: _266  and  _268
REMARK  108  A    between atoms: _268  and  _269
REMARK  109  A    between atoms: _268  and  _271
REMARK  110  A    between atoms: _274  and  _276
REMARK  111  A    between atoms: _276  and  _277
REMARK  112  A    between atoms: _276  and  _279
REMARK  113  A    between atoms: _279  and  _280
REMARK  114  A    between atoms: _283  and  _285
REMARK  115  A    between atoms: _285  and  _286
REMARK  116  A    between atoms: _285  and  _288
REMARK  117  A    between atoms: _288  and  _289
REMARK  118  A    between atoms: _289  and  _290
REMARK  119  A    between atoms: _292  and  _294
REMARK  120  A    between atoms: _294  and  _295
REMARK  121  A    between atoms: _294  and  _297
REMARK  122  A    between atoms: _297  and  _298
REMARK  123  A    between atoms: _301  and  _303
REMARK  124  A    between atoms: _303  and  _304
REMARK  125  A    between atoms: _303  and  _306
REMARK  126  A    between atoms: _306  and  _307
REMARK  127  A    between atoms: _307  and  _308
REMARK  128  A    between atoms: _308  and  _309
REMARK  129  A    between atoms: _318  and  _320
REMARK  130  A    between atoms: _320  and  _321
REMARK  131  A    between atoms: _320  and  _323
REMARK  132  A    between atoms: _323  and  _324
REMARK  133  A    between atoms: _326  and  _328
REMARK  134  A    between atoms: _328  and  _329
REMARK  135  A    between atoms: _328  and  _331
REMARK  136  A    between atoms: _331  and  _332
REMARK  137  A    between atoms: _337  and  _339
REMARK  138  A    between atoms: _339  and  _340
REMARK  139  A    between atoms: _339  and  _342
REMARK  140  A    between atoms: _342  and  _343
REMARK  141  A    between atoms: _343  and  _344
REMARK  142  A    between atoms: _347  and  _349
REMARK  143  A    between atoms: _349  and  _350
REMARK  144  A    between atoms: _349  and  _352
REMARK  145  A    between atoms: _352  and  _353
REMARK  146  A    between atoms: _355  and  _357
REMARK  147  A    between atoms: _357  and  _358
REMARK  148  A    between atoms: _357  and  _360
REMARK  149  A    between atoms: _360  and  _361
REMARK  150  A    between atoms: _367  and  _369
REMARK  151  A    between atoms: _369  and  _370
REMARK  152  A    between atoms: _369  and  _372
REMARK  153  A    between atoms: _372  and  _373
REMARK  154  A    between atoms: _375  and  _377
REMARK  155  A    between atoms: _377  and  _378
REMARK  156  A    between atoms: _377  and  _380
REMARK  157  A    between atoms: _380  and  _381
REMARK  158  A    between atoms: _391  and  _393
REMARK  159  A    between atoms: _393  and  _394
REMARK  160  A    between atoms: _393  and  _396
REMARK  161  A    between atoms: _396  and  _397
REMARK  162  A    between atoms: _400  and  _402
REMARK  163  A    between atoms: _402  and  _403
REMARK  164  A    between atoms: _402  and  _405
REMARK  165  A    between atoms: _407  and  _409
REMARK  166  A    between atoms: _409  and  _410
REMARK  167  A    between atoms: _409  and  _412
REMARK  168  A    between atoms: _412  and  _413
REMARK  169  A    between atoms: _418  and  _419
REMARK  170  A    between atoms: _421  and  _423
REMARK  171  A    between atoms: _423  and  _424
REMARK  172  A    between atoms: _423  and  _426
REMARK  173  A    between atoms: _426  and  _427
REMARK  174  A    between atoms: _427  and  _428
REMARK  175  A    between atoms: _428  and  _429
REMARK  176  A    between atoms: _429  and  _430
REMARK  177  A    between atoms: _434  and  _436
REMARK  178  A    between atoms: _436  and  _437
REMARK  179  A    between atoms: _436  and  _439
REMARK  180  A    between atoms: _439  and  _440
REMARK  181  A    between atoms: _445  and  _446
REMARK  182  A    between atoms: _448  and  _450
REMARK  183  A    between atoms: _450  and  _451
REMARK  184  A    between atoms: _450  and  _453
REMARK  185  A    between atoms: _453  and  _454
REMARK  186  A    between atoms: _454  and  _455
REMARK  187  A    between atoms: _455  and  _456
REMARK  188  A    between atoms: _465  and  _467
REMARK  189  A    between atoms: _467  and  _468
REMARK  190  A    between atoms: _467  and  _470
REMARK  191  A    between atoms: _473  and  _475
REMARK  192  A    between atoms: _475  and  _476
REMARK  193  A    between atoms: _475  and  _478
REMARK  194  A    between atoms: _478  and  _479
REMARK  195  A    between atoms: _482  and  _484
REMARK  196  A    between atoms: _484  and  _485
REMARK  197  A    between atoms: _484  and  _487
REMARK  198  A    between atoms: _490  and  _492
REMARK  199  A    between atoms: _492  and  _493
REMARK  200  A    between atoms: _492  and  _495
REMARK  201  A    between atoms: _495  and  _496
REMARK  202  A    between atoms: _499  and  _501
REMARK  203  A    between atoms: _501  and  _502
REMARK  204  A    between atoms: _505  and  _507
REMARK  205  A    between atoms: _507  and  _508
REMARK  206  A    between atoms: _510  and  _512
REMARK  207  A    between atoms: _512  and  _513
REMARK  208  A    between atoms: _512  and  _515
REMARK  209  A    between atoms: _515  and  _516
REMARK  210  A    between atoms: _521  and  _523
REMARK  211  A    between atoms: _523  and  _524
REMARK  212  A    between atoms: _523  and  _526
REMARK  213  A    between atoms: _526  and  _527
REMARK  214  A    between atoms: _530  and  _532
REMARK  215  A    between atoms: _532  and  _533
REMARK  216  A    between atoms: _532  and  _535
REMARK  217  A    between atoms: _535  and  _536
REMARK  218  A    between atoms: _539  and  _541
REMARK  219  A    between atoms: _541  and  _542
REMARK  220  A    between atoms: _541  and  _544
REMARK  221  A    between atoms: _544  and  _545
REMARK  222  A    between atoms: _548  and  _550
REMARK  223  A    between atoms: _550  and  _551
REMARK  224  A    between atoms: _550  and  _553
REMARK  225  A    between atoms: _553  and  _554
REMARK  226  A    between atoms: _554  and  _555
REMARK  227  A    between atoms: _560  and  _562
REMARK  228  A    between atoms: _562  and  _563
REMARK  229  A    between atoms: _562  and  _565
REMARK  230  A    between atoms: _565  and  _566
REMARK  231  A    between atoms: _569  and  _571
REMARK  232  A    between atoms: _571  and  _572
REMARK  233  A    between atoms: _571  and  _574
REMARK  234  A    between atoms: _574  and  _575
REMARK  235  A    between atoms: _580  and  _582
REMARK  236  A    between atoms: _582  and  _583
REMARK  237  A    between atoms: _582  and  _585
REMARK  238  A    between atoms: _585  and  _586
REMARK  239  A    between atoms: _588  and  _590
REMARK  240  A    between atoms: _590  and  _591
REMARK  241  A    between atoms: _590  and  _593
REMARK  242  A    between atoms: _593  and  _594
REMARK  243  A    between atoms: _594  and  _595
REMARK  244  A    between atoms: _600  and  _602
REMARK  245  A    between atoms: _602  and  _603
REMARK  246  A    between atoms: _602  and  _605
REMARK  247  A    between atoms: _605  and  _606
REMARK  248  A    between atoms: _611  and  _612
REMARK  249  A    between atoms: _614  and  _616
REMARK  250  A    between atoms: _616  and  _617
REMARK  251  A    between atoms: _616  and  _619
REMARK  252  A    between atoms: _619  and  _620
REMARK  253  A    between atoms: _620  and  _621
REMARK  254  A    between atoms: _621  and  _622
REMARK  255  A    between atoms: _631  and  _633
REMARK  256  A    between atoms: _633  and  _634
REMARK  257  A    between atoms: _633  and  _636
REMARK  258  A    between atoms: _636  and  _637
REMARK  259  A    between atoms: _640  and  _642
REMARK  260  A    between atoms: _642  and  _643
REMARK  261  A    between atoms: _642  and  _645
REMARK  262  A    between atoms: _647  and  _649
REMARK  263  A    between atoms: _649  and  _650
REMARK  264  A    between atoms: _649  and  _652
REMARK  265  A    between atoms: _652  and  _653
REMARK  266  A    between atoms: _653  and  _654
REMARK  267  A    between atoms: _654  and  _655
REMARK  268  A    between atoms: _655  and  _656
REMARK  269  A    between atoms: _660  and  _662
REMARK  270  A    between atoms: _662  and  _663
REMARK  271  A    between atoms: _662  and  _665
REMARK  272  A    between atoms: _665  and  _666
REMARK  273  A    between atoms: _669  and  _671
REMARK  274  A    between atoms: _671  and  _672
REMARK  275  A    between atoms: _671  and  _674
REMARK  276  A    between atoms: _674  and  _675
REMARK  277  A    between atoms: _678  and  _680
REMARK  278  A    between atoms: _680  and  _681
REMARK  279  A    between atoms: _680  and  _683
REMARK  280  A    between atoms: _686  and  _688
REMARK  281  A    between atoms: _688  and  _689
REMARK  282  A    between atoms: _688  and  _691
REMARK  283  A    between atoms: _691  and  _692
REMARK  284  A    between atoms: _695  and  _697
REMARK  285  A    between atoms: _697  and  _698
REMARK  286  A    between atoms: _697  and  _700
REMARK  287  A    between atoms: _700  and  _701
REMARK                            x       y       z     vdW  Elec       q    Type
REMARK                         _______ _______ _______ _____ _____    ______ ____
ROOT
ATOM      1  O   HOH     1      13.797  12.357  35.759  0.00  0.00    +0.000 OA
ENDROOT
TORSDOF 0
REMARK  Name = ../refined-set-2016/1ie9/1ie9_pocket.pdb
REMARK  287 active torsions:
REMARK  status: ('A' for Active; 'I' for Inactive)
REMARK    1  A    between atoms: _1  and  _3
REMARK    2  A    between atoms: _3  and  _4
REMARK    3  A    between atoms: _3  and  _6
REMARK    4  A    between atoms: _6  and  _7
REMARK    5  A    between atoms: _10  and  _12
REMARK    6  A    between atoms: _12  and  _13
REMARK    7  A    between atoms: _12  and  _15
REMARK    8  A    between atoms: _15  and  _16
REMARK    9  A    between atoms: _21  and  _22
REMARK   10  A    between atoms: _24  and  _26
REMARK   11  A    between atoms: _26  and  _27
REMARK   12  A    between atoms: _26  and  _29
REMARK   13  A    between atoms: _29  and  _30
REMARK   14  A    between atoms: _34  and  _35
REMARK   15  A    between atoms: _40  and  _42
REMARK   16  A    between atoms: _42  and  _43
REMARK   17  A    between atoms: _42  and  _45
REMARK   18  A    between atoms: _45  and  _46
REMARK   19  A    between atoms: _51  and  _52
REMARK   20  A    between atoms: _54  and  _56
REMARK   21  A    between atoms: _56  and  _57
REMARK   22  A    between atoms: _56  and  _59
REMARK   23  A    between atoms: _59  and  _60
REMARK   24  A    between atoms: _66  and  _68
REMARK   25  A    between atoms: _68  and  _69
REMARK   26  A    between atoms: _68  and  _71
REMARK   27  A    between atoms: _71  and  _72
REMARK   28  A    between atoms: _78  and  _80
REMARK   29  A    between atoms: _80  and  _81
REMARK   30  A    between atoms: _80  and  _83
REMARK   31  A    between atoms: _83  and  _84
REMARK   32  A    between atoms: _84  and  _85
REMARK   33  A    between atoms: _85  and  _86
REMARK   34  A    between atoms: _95  and  _97
REMARK   35  A    between atoms: _97  and  _98
REMARK   36  A    between atoms: _97  and  _100
REMARK   37  A    between atoms: _100  and  _101
REMARK   38  A    between atoms: _104  and  _106
REMARK   39  A    between atoms: _106  and  _107
REMARK   40  A    between atoms: _106  and  _109
REMARK   41  A    between atoms: _109  and  _110
REMARK   42  A    between atoms: _110  and  _111
REMARK   43  A    between atoms: _113  and  _115
REMARK   44  A    between atoms: _115  and  _116
REMARK   45  A    between atoms: _115  and  _118
REMARK   46  A    between atoms: _118  and  _119
REMARK   47  A    between atoms: _123  and  _124
REMARK   48  A    between atoms: _129  and  _131
REMARK   49  A    between atoms: _131  and  _132
REMARK   50  A    between atoms: _131  and  _134
REMARK   51  A    between atoms: _134  and  _135
REMARK   52  A    between atoms: _140  and  _142
REMARK   53  A    between atoms: _142  and  _143
REMARK   54  A    between atoms: _142  and  _145
REMARK   55  A    between atoms: _145  and  _146
REMARK   56  A    between atoms: _149  and  _151
REMARK   57  A    between atoms: _151  and  _152
REMARK   58  A    between atoms: _155  and  _157
REMARK   59  A    between atoms: _157  and  _158
REMARK   60  A    between atoms: _157  and  _160
REMARK   61  A    between atoms: _160  and  _161
REMARK   62  A    between atoms: _164  and  _166
REMARK   63  A    between atoms: _166  and  _167
REMARK   64  A    between atoms: _166  and  _169
REMARK   65  A    between atoms: _169  and  _170
REMARK   66  A    between atoms: _173  and  _175
REMARK   67  A    between atoms: _175  and  _176
REMARK   68  A    between atoms: _175  and  _178
REMARK   69  A    between atoms: _181  and  _183
REMARK   70  A    between atoms: _183  and  _184
REMARK   71  A    between atoms: _183  and  _186
REMARK   72  A    between atoms: _186  and  _187
REMARK   73  A    between atoms: _189  and  _191
REMARK   74  A    between atoms: _191  and  _192
REMARK   75  A    between atoms: _191  and  _194
REMARK   76  A    between atoms: _194  and  _195
REMARK   77  A    between atoms: _200  and  _201
REMARK   78  A    between atoms: _203  and  _205
REMARK   79  A    between atoms: _205  and  _206
REMARK   80  A    between atoms: _205  and  _208
REMARK   81  A    between atoms: _208  and  _209
REMARK   82  A    between atoms: _211  and  _213
REMARK   83  A    between atoms: _213  and  _214
REMARK   84  A    between atoms: _213  and  _216
REMARK   85  A    between atoms: _216  and  _217
REMARK   86  A    between atoms: _220  and  _222
REMARK   87  A    between atoms: _222  and  _223
REMARK   88  A    between atoms: _222  and  _225
REMARK   89  A    between atoms: _225  and  _226
REMARK   90  A    between atoms: _226  and  _227
REMARK   91  A    between atoms: _227  and  _228
REMARK   92  A    between atoms: _228  and  _229
REMARK   93  A    between atoms: _233  and  _235
REMARK   94  A    between atoms: _235  and  _236
REMARK   95  A    between atoms: _235  and  _238
REMARK   96  A    between atoms: _241  and  _243
REMARK   97  A    between atoms: _243  and  _244
REMARK   98  A    between atoms: _247  and  _249
REMARK   99  A    between atoms: _249  and  _250
REMARK  100  A    between atoms: _249  and  _252
REMARK  101  A    between atoms: _252  and  _253
REMARK  102  A    between atoms: _256  and  _258
REMARK  103  A    between atoms: _258  and  _259
REMARK  104  A    between atoms: _258  and  _261
REMARK  105  A    between atoms: _261  and  _262
REMARK  106  A    between atoms: _262  and  _263
REMARK  107  A    between atoms: _266  and  _268
REMARK  108  A    between atoms: _268  and  _269
REMARK  109  A    between atoms: _268  and  _271
REMARK  110  A    between atoms: _274  and  _276
REMARK  111  A    between atoms: _276  and  _277
REMARK  112  A    between atoms: _276  and  _279
REMARK  113  A    between atoms: _279  and  _280
REMARK  114  A    between atoms: _283  and  _285
REMARK  115  A    between atoms: _285  and  _286
REMARK  116  A    between atoms: _285  and  _288
REMARK  117  A    between atoms: _288  and  _289
REMARK  118  A    between atoms: _289  and  _290
REMARK  119  A    between atoms: _292  and  _294
REMARK  120  A    between atoms: _294  and  _295
REMARK  121  A    between atoms: _294  and  _297
REMARK  122  A    between atoms: _297  and  _298
REMARK  123  A    between atoms: _301  and  _303
REMARK  124  A    between atoms: _303  and  _304
REMARK  125  A    between atoms: _303  and  _306
REMARK  126  A    between atoms: _306  and  _307
REMARK  127  A    between atoms: _307  and  _308
REMARK  128  A    between atoms: _308  and  _309
REMARK  129  A    between atoms: _318  and  _320
REMARK  130  A    between atoms: _320  and  _321
REMARK  131  A    between atoms: _320  and  _323
REMARK  132  A    between atoms: _323  and  _324
REMARK  133  A    between atoms: _326  and  _328
REMARK  134  A    between atoms: _328  and  _329
REMARK  135  A    between atoms: _328  and  _331
REMARK  136  A    between atoms: _331  and  _332
REMARK  137  A    between atoms: _337  and  _339
REMARK  138  A    between atoms: _339  and  _340
REMARK  139  A    between atoms: _339  and  _342
REMARK  140  A    between atoms: _342  and  _343
REMARK  141  A    between atoms: _343  and  _344
REMARK  142  A    between atoms: _347  and  _349
REMARK  143  A    between atoms: _349  and  _350
REMARK  144  A    between atoms: _349  and  _352
REMARK  145  A    between atoms: _352  and  _353
REMARK  146  A    between atoms: _355  and  _357
REMARK  147  A    between atoms: _357  and  _358
REMARK  148  A    between atoms: _357  and  _360
REMARK  149  A    between atoms: _360  and  _361
REMARK  150  A    between atoms: _367  and  _369
REMARK  151  A    between atoms: _369  and  _370
REMARK  152  A    between atoms: _369  and  _372
REMARK  153  A    between atoms: _372  and  _373
REMARK  154  A    between atoms: _375  and  _377
REMARK  155  A    between atoms: _377  and  _378
REMARK  156  A    between atoms: _377  and  _380
REMARK  157  A    between atoms: _380  and  _381
REMARK  158  A    between atoms: _391  and  _393
REMARK  159  A    between atoms: _393  and  _394
REMARK  160  A    between atoms: _393  and  _396
REMARK  161  A    between atoms: _396  and  _397
REMARK  162  A    between atoms: _400  and  _402
REMARK  163  A    between atoms: _402  and  _403
REMARK  164  A    between atoms: _402  and  _405
REMARK  165  A    between atoms: _407  and  _409
REMARK  166  A    between atoms: _409  and  _410
REMARK  167  A    between atoms: _409  and  _412
REMARK  168  A    between atoms: _412  and  _413
REMARK  169  A    between atoms: _418  and  _419
REMARK  170  A    between atoms: _421  and  _423
REMARK  171  A    between atoms: _423  and  _424
REMARK  172  A    between atoms: _423  and  _426
REMARK  173  A    between atoms: _426  and  _427
REMARK  174  A    between atoms: _427  and  _428
REMARK  175  A    between atoms: _428  and  _429
REMARK  176  A    between atoms: _429  and  _430
REMARK  177  A    between atoms: _434  and  _436
REMARK  178  A    between atoms: _436  and  _437
REMARK  179  A    between atoms: _436  and  _439
REMARK  180  A    between atoms: _439  and  _440
REMARK  181  A    between atoms: _445  and  _446
REMARK  182  A    between atoms: _448  and  _450
REMARK  183  A    between atoms: _450  and  _451
REMARK  184  A    between atoms: _450  and  _453
REMARK  185  A    between atoms: _453  and  _454
REMARK  186  A    between atoms: _454  and  _455
REMARK  187  A    between atoms: _455  and  _456
REMARK  188  A    between atoms: _465  and  _467
REMARK  189  A    between atoms: _467  and  _468
REMARK  190  A    between atoms: _467  and  _470
REMARK  191  A    between atoms: _473  and  _475
REMARK  192  A    between atoms: _475  and  _476
REMARK  193  A    between atoms: _475  and  _478
REMARK  194  A    between atoms: _478  and  _479
REMARK  195  A    between atoms: _482  and  _484
REMARK  196  A    between atoms: _484  and  _485
REMARK  197  A    between atoms: _484  and  _487
REMARK  198  A    between atoms: _490  and  _492
REMARK  199  A    between atoms: _492  and  _493
REMARK  200  A    between atoms: _492  and  _495
REMARK  201  A    between atoms: _495  and  _496
REMARK  202  A    between atoms: _499  and  _501
REMARK  203  A    between atoms: _501  and  _502
REMARK  204  A    between atoms: _505  and  _507
REMARK  205  A    between atoms: _507  and  _508
REMARK  206  A    between atoms: _510  and  _512
REMARK  207  A    between atoms: _512  and  _513
REMARK  208  A    between atoms: _512  and  _515
REMARK  209  A    between atoms: _515  and  _516
REMARK  210  A    between atoms: _521  and  _523
REMARK  211  A    between atoms: _523  and  _524
REMARK  212  A    between atoms: _523  and  _526
REMARK  213  A    between atoms: _526  and  _527
REMARK  214  A    between atoms: _530  and  _532
REMARK  215  A    between atoms: _532  and  _533
REMARK  216  A    between atoms: _532  and  _535
REMARK  217  A    between atoms: _535  and  _536
REMARK  218  A    between atoms: _539  and  _541
REMARK  219  A    between atoms: _541  and  _542
REMARK  220  A    between atoms: _541  and  _544
REMARK  221  A    between atoms: _544  and  _545
REMARK  222  A    between atoms: _548  and  _550
REMARK  223  A    between atoms: _550  and  _551
REMARK  224  A    between atoms: _550  and  _553
REMARK  225  A    between atoms: _553  and  _554
REMARK  226  A    between atoms: _554  and  _555
REMARK  227  A    between atoms: _560  and  _562
REMARK  228  A    between atoms: _562  and  _563
REMARK  229  A    between atoms: _562  and  _565
REMARK  230  A    between atoms: _565  and  _566
REMARK  231  A    between atoms: _569  and  _571
REMARK  232  A    between atoms: _571  and  _572
REMARK  233  A    between atoms: _571  and  _574
REMARK  234  A    between atoms: _574  and  _575
REMARK  235  A    between atoms: _580  and  _582
REMARK  236  A    between atoms: _582  and  _583
REMARK  237  A    between atoms: _582  and  _585
REMARK  238  A    between atoms: _585  and  _586
REMARK  239  A    between atoms: _588  and  _590
REMARK  240  A    between atoms: _590  and  _591
REMARK  241  A    between atoms: _590  and  _593
REMARK  242  A    between atoms: _593  and  _594
REMARK  243  A    between atoms: _594  and  _595
REMARK  244  A    between atoms: _600  and  _602
REMARK  245  A    between atoms: _602  and  _603
REMARK  246  A    between atoms: _602  and  _605
REMARK  247  A    between atoms: _605  and  _606
REMARK  248  A    between atoms: _611  and  _612
REMARK  249  A    between atoms: _614  and  _616
REMARK  250  A    between atoms: _616  and  _617
REMARK  251  A    between atoms: _616  and  _619
REMARK  252  A    between atoms: _619  and  _620
REMARK  253  A    between atoms: _620  and  _621
REMARK  254  A    between atoms: _621  and  _622
REMARK  255  A    between atoms: _631  and  _633
REMARK  256  A    between atoms: _633  and  _634
REMARK  257  A    between atoms: _633  and  _636
REMARK  258  A    between atoms: _636  and  _637
REMARK  259  A    between atoms: _640  and  _642
REMARK  260  A    between atoms: _642  and  _643
REMARK  261  A    between atoms: _642  and  _645
REMARK  262  A    between atoms: _647  and  _649
REMARK  263  A    between atoms: _649  and  _650
REMARK  264  A    between atoms: _649  and  _652
REMARK  265  A    between atoms: _652  and  _653
REMARK  266  A    between atoms: _653  and  _654
REMARK  267  A    between atoms: _654  and  _655
REMARK  268  A    between atoms: _655  and  _656
REMARK  269  A    between atoms: _660  and  _662
REMARK  270  A    between atoms: _662  and  _663
REMARK  271  A    between atoms: _662  and  _665
REMARK  272  A    between atoms: _665  and  _666
REMARK  273  A    between atoms: _669  and  _671
REMARK  274  A    between atoms: _671  and  _672
REMARK  275  A    between atoms: _671  and  _674
REMARK  276  A    between atoms: _674  and  _675
REMARK  277  A    between atoms: _678  and  _680
REMARK  278  A    between atoms: _680  and  _681
REMARK  279  A    between atoms: _680  and  _683
REMARK  280  A    between atoms: _686  and  _688
REMARK  281  A    between atoms: _688  and  _689
REMARK  282  A    between atoms: _688  and  _691
REMARK  283  A    between atoms: _691  and  _692
REMARK  284  A    between atoms: _695  and  _697
REMARK  285  A    between atoms: _697  and  _698
REMARK  286  A    between atoms: _697  and  _700
REMARK  287  A    between atoms: _700  and  _701
REMARK                            x       y       z     vdW  Elec       q    Type
REMARK                         _______ _______ _______ _____ _____    ______ ____
ROOT
ATOM      1  O   HOH     1      14.917  11.579  41.774  0.00  0.00    +0.000 OA
ENDROOT
TORSDOF 0
REMARK  Name = ../refined-set-2016/1ie9/1ie9_pocket.pdb
REMARK  287 active torsions:
REMARK  status: ('A' for Active; 'I' for Inactive)
REMARK    1  A    between atoms: _1  and  _3
REMARK    2  A    between atoms: _3  and  _4
REMARK    3  A    between atoms: _3  and  _6
REMARK    4  A    between atoms: _6  and  _7
REMARK    5  A    between atoms: _10  and  _12
REMARK    6  A    between atoms: _12  and  _13
REMARK    7  A    between atoms: _12  and  _15
REMARK    8  A    between atoms: _15  and  _16
REMARK    9  A    between atoms: _21  and  _22
REMARK   10  A    between atoms: _24  and  _26
REMARK   11  A    between atoms: _26  and  _27
REMARK   12  A    between atoms: _26  and  _29
REMARK   13  A    between atoms: _29  and  _30
REMARK   14  A    between atoms: _34  and  _35
REMARK   15  A    between atoms: _40  and  _42
REMARK   16  A    between atoms: _42  and  _43
REMARK   17  A    between atoms: _42  and  _45
REMARK   18  A    between atoms: _45  and  _46
REMARK   19  A    between atoms: _51  and  _52
REMARK   20  A    between atoms: _54  and  _56
REMARK   21  A    between atoms: _56  and  _57
REMARK   22  A    between atoms: _56  and  _59
REMARK   23  A    between atoms: _59  and  _60
REMARK   24  A    between atoms: _66  and  _68
REMARK   25  A    between atoms: _68  and  _69
REMARK   26  A    between atoms: _68  and  _71
REMARK   27  A    between atoms: _71  and  _72
REMARK   28  A    between atoms: _78  and  _80
REMARK   29  A    between atoms: _80  and  _81
REMARK   30  A    between atoms: _80  and  _83
REMARK   31  A    between atoms: _83  and  _84
REMARK   32  A    between atoms: _84  and  _85
REMARK   33  A    between atoms: _85  and  _86
REMARK   34  A    between atoms: _95  and  _97
REMARK   35  A    between atoms: _97  and  _98
REMARK   36  A    between atoms: _97  and  _100
REMARK   37  A    between atoms: _100  and  _101
REMARK   38  A    between atoms: _104  and  _106
REMARK   39  A    between atoms: _106  and  _107
REMARK   40  A    between atoms: _106  and  _109
REMARK   41  A    between atoms: _109  and  _110
REMARK   42  A    between atoms: _110  and  _111
REMARK   43  A    between atoms: _113  and  _115
REMARK   44  A    between atoms: _115  and  _116
REMARK   45  A    between atoms: _115  and  _118
REMARK   46  A    between atoms: _118  and  _119
REMARK   47  A    between atoms: _123  and  _124
REMARK   48  A    between atoms: _129  and  _131
REMARK   49  A    between atoms: _131  and  _132
REMARK   50  A    between atoms: _131  and  _134
REMARK   51  A    between atoms: _134  and  _135
REMARK   52  A    between atoms: _140  and  _142
REMARK   53  A    between atoms: _142  and  _143
REMARK   54  A    between atoms: _142  and  _145
REMARK   55  A    between atoms: _145  and  _146
REMARK   56  A    between atoms: _149  and  _151
REMARK   57  A    between atoms: _151  and  _152
REMARK   58  A    between atoms: _155  and  _157
REMARK   59  A    between atoms: _157  and  _158
REMARK   60  A    between atoms: _157  and  _160
REMARK   61  A    between atoms: _160  and  _161
REMARK   62  A    between atoms: _164  and  _166
REMARK   63  A    between atoms: _166  and  _167
REMARK   64  A    between atoms: _166  and  _169
REMARK   65  A    between atoms: _169  and  _170
REMARK   66  A    between atoms: _173  and  _175
REMARK   67  A    between atoms: _175  and  _176
REMARK   68  A    between atoms: _175  and  _178
REMARK   69  A    between atoms: _181  and  _183
REMARK   70  A    between atoms: _183  and  _184
REMARK   71  A    between atoms: _183  and  _186
REMARK   72  A    between atoms: _186  and  _187
REMARK   73  A    between atoms: _189  and  _191
REMARK   74  A    between atoms: _191  and  _192
REMARK   75  A    between atoms: _191  and  _194
REMARK   76  A    between atoms: _194  and  _195
REMARK   77  A    between atoms: _200  and  _201
REMARK   78  A    between atoms: _203  and  _205
REMARK   79  A    between atoms: _205  and  _206
REMARK   80  A    between atoms: _205  and  _208
REMARK   81  A    between atoms: _208  and  _209
REMARK   82  A    between atoms: _211  and  _213
REMARK   83  A    between atoms: _213  and  _214
REMARK   84  A    between atoms: _213  and  _216
REMARK   85  A    between atoms: _216  and  _217
REMARK   86  A    between atoms: _220  and  _222
REMARK   87  A    between atoms: _222  and  _223
REMARK   88  A    between atoms: _222  and  _225
REMARK   89  A    between atoms: _225  and  _226
REMARK   90  A    between atoms: _226  and  _227
REMARK   91  A    between atoms: _227  and  _228
REMARK   92  A    between atoms: _228  and  _229
REMARK   93  A    between atoms: _233  and  _235
REMARK   94  A    between atoms: _235  and  _236
REMARK   95  A    between atoms: _235  and  _238
REMARK   96  A    between atoms: _241  and  _243
REMARK   97  A    between atoms: _243  and  _244
REMARK   98  A    between atoms: _247  and  _249
REMARK   99  A    between atoms: _249  and  _250
REMARK  100  A    between atoms: _249  and  _252
REMARK  101  A    between atoms: _252  and  _253
REMARK  102  A    between atoms: _256  and  _258
REMARK  103  A    between atoms: _258  and  _259
REMARK  104  A    between atoms: _258  and  _261
REMARK  105  A    between atoms: _261  and  _262
REMARK  106  A    between atoms: _262  and  _263
REMARK  107  A    between atoms: _266  and  _268
REMARK  108  A    between atoms: _268  and  _269
REMARK  109  A    between atoms: _268  and  _271
REMARK  110  A    between atoms: _274  and  _276
REMARK  111  A    between atoms: _276  and  _277
REMARK  112  A    between atoms: _276  and  _279
REMARK  113  A    between atoms: _279  and  _280
REMARK  114  A    between atoms: _283  and  _285
REMARK  115  A    between atoms: _285  and  _286
REMARK  116  A    between atoms: _285  and  _288
REMARK  117  A    between atoms: _288  and  _289
REMARK  118  A    between atoms: _289  and  _290
REMARK  119  A    between atoms: _292  and  _294
REMARK  120  A    between atoms: _294  and  _295
REMARK  121  A    between atoms: _294  and  _297
REMARK  122  A    between atoms: _297  and  _298
REMARK  123  A    between atoms: _301  and  _303
REMARK  124  A    between atoms: _303  and  _304
REMARK  125  A    between atoms: _303  and  _306
REMARK  126  A    between atoms: _306  and  _307
REMARK  127  A    between atoms: _307  and  _308
REMARK  128  A    between atoms: _308  and  _309
REMARK  129  A    between atoms: _318  and  _320
REMARK  130  A    between atoms: _320  and  _321
REMARK  131  A    between atoms: _320  and  _323
REMARK  132  A    between atoms: _323  and  _324
REMARK  133  A    between atoms: _326  and  _328
REMARK  134  A    between atoms: _328  and  _329
REMARK  135  A    between atoms: _328  and  _331
REMARK  136  A    between atoms: _331  and  _332
REMARK  137  A    between atoms: _337  and  _339
REMARK  138  A    between atoms: _339  and  _340
REMARK  139  A    between atoms: _339  and  _342
REMARK  140  A    between atoms: _342  and  _343
REMARK  141  A    between atoms: _343  and  _344
REMARK  142  A    between atoms: _347  and  _349
REMARK  143  A    between atoms: _349  and  _350
REMARK  144  A    between atoms: _349  and  _352
REMARK  145  A    between atoms: _352  and  _353
REMARK  146  A    between atoms: _355  and  _357
REMARK  147  A    between atoms: _357  and  _358
REMARK  148  A    between atoms: _357  and  _360
REMARK  149  A    between atoms: _360  and  _361
REMARK  150  A    between atoms: _367  and  _369
REMARK  151  A    between atoms: _369  and  _370
REMARK  152  A    between atoms: _369  and  _372
REMARK  153  A    between atoms: _372  and  _373
REMARK  154  A    between atoms: _375  and  _377
REMARK  155  A    between atoms: _377  and  _378
REMARK  156  A    between atoms: _377  and  _380
REMARK  157  A    between atoms: _380  and  _381
REMARK  158  A    between atoms: _391  and  _393
REMARK  159  A    between atoms: _393  and  _394
REMARK  160  A    between atoms: _393  and  _396
REMARK  161  A    between atoms: _396  and  _397
REMARK  162  A    between atoms: _400  and  _402
REMARK  163  A    between atoms: _402  and  _403
REMARK  164  A    between atoms: _402  and  _405
REMARK  165  A    between atoms: _407  and  _409
REMARK  166  A    between atoms: _409  and  _410
REMARK  167  A    between atoms: _409  and  _412
REMARK  168  A    between atoms: _412  and  _413
REMARK  169  A    between atoms: _418  and  _419
REMARK  170  A    between atoms: _421  and  _423
REMARK  171  A    between atoms: _423  and  _424
REMARK  172  A    between atoms: _423  and  _426
REMARK  173  A    between atoms: _426  and  _427
REMARK  174  A    between atoms: _427  and  _428
REMARK  175  A    between atoms: _428  and  _429
REMARK  176  A    between atoms: _429  and  _430
REMARK  177  A    between atoms: _434  and  _436
REMARK  178  A    between atoms: _436  and  _437
REMARK  179  A    between atoms: _436  and  _439
REMARK  180  A    between atoms: _439  and  _440
REMARK  181  A    between atoms: _445  and  _446
REMARK  182  A    between atoms: _448  and  _450
REMARK  183  A    between atoms: _450  and  _451
REMARK  184  A    between atoms: _450  and  _453
REMARK  185  A    between atoms: _453  and  _454
REMARK  186  A    between atoms: _454  and  _455
REMARK  187  A    between atoms: _455  and  _456
REMARK  188  A    between atoms: _465  and  _467
REMARK  189  A    between atoms: _467  and  _468
REMARK  190  A    between atoms: _467  and  _470
REMARK  191  A    between atoms: _473  and  _475
REMARK  192  A    between atoms: _475  and  _476
REMARK  193  A    between atoms: _475  and  _478
REMARK  194  A    between atoms: _478  and  _479
REMARK  195  A    between atoms: _482  and  _484
REMARK  196  A    between atoms: _484  and  _485
REMARK  197  A    between atoms: _484  and  _487
REMARK  198  A    between atoms: _490  and  _492
REMARK  199  A    between atoms: _492  and  _493
REMARK  200  A    between atoms: _492  and  _495
REMARK  201  A    between atoms: _495  and  _496
REMARK  202  A    between atoms: _499  and  _501
REMARK  203  A    between atoms: _501  and  _502
REMARK  204  A    between atoms: _505  and  _507
REMARK  205  A    between atoms: _507  and  _508
REMARK  206  A    between atoms: _510  and  _512
REMARK  207  A    between atoms: _512  and  _513
REMARK  208  A    between atoms: _512  and  _515
REMARK  209  A    between atoms: _515  and  _516
REMARK  210  A    between atoms: _521  and  _523
REMARK  211  A    between atoms: _523  and  _524
REMARK  212  A    between atoms: _523  and  _526
REMARK  213  A    between atoms: _526  and  _527
REMARK  214  A    between atoms: _530  and  _532
REMARK  215  A    between atoms: _532  and  _533
REMARK  216  A    between atoms: _532  and  _535
REMARK  217  A    between atoms: _535  and  _536
REMARK  218  A    between atoms: _539  and  _541
REMARK  219  A    between atoms: _541  and  _542
REMARK  220  A    between atoms: _541  and  _544
REMARK  221  A    between atoms: _544  and  _545
REMARK  222  A    between atoms: _548  and  _550
REMARK  223  A    between atoms: _550  and  _551
REMARK  224  A    between atoms: _550  and  _553
REMARK  225  A    between atoms: _553  and  _554
REMARK  226  A    between atoms: _554  and  _555
REMARK  227  A    between atoms: _560  and  _562
REMARK  228  A    between atoms: _562  and  _563
REMARK  229  A    between atoms: _562  and  _565
REMARK  230  A    between atoms: _565  and  _566
REMARK  231  A    between atoms: _569  and  _571
REMARK  232  A    between atoms: _571  and  _572
REMARK  233  A    between atoms: _571  and  _574
REMARK  234  A    between atoms: _574  and  _575
REMARK  235  A    between atoms: _580  and  _582
REMARK  236  A    between atoms: _582  and  _583
REMARK  237  A    between atoms: _582  and  _585
REMARK  238  A    between atoms: _585  and  _586
REMARK  239  A    between atoms: _588  and  _590
REMARK  240  A    between atoms: _590  and  _591
REMARK  241  A    between atoms: _590  and  _593
REMARK  242  A    between atoms: _593  and  _594
REMARK  243  A    between atoms: _594  and  _595
REMARK  244  A    between atoms: _600  and  _602
REMARK  245  A    between atoms: _602  and  _603
REMARK  246  A    between atoms: _602  and  _605
REMARK  247  A    between atoms: _605  and  _606
REMARK  248  A    between atoms: _611  and  _612
REMARK  249  A    between atoms: _614  and  _616
REMARK  250  A    between atoms: _616  and  _617
REMARK  251  A    between atoms: _616  and  _619
REMARK  252  A    between atoms: _619  and  _620
REMARK  253  A    between atoms: _620  and  _621
REMARK  254  A    between atoms: _621  and  _622
REMARK  255  A    between atoms: _631  and  _633
REMARK  256  A    between atoms: _633  and  _634
REMARK  257  A    between atoms: _633  and  _636
REMARK  258  A    between atoms: _636  and  _637
REMARK  259  A    between atoms: _640  and  _642
REMARK  260  A    between atoms: _642  and  _643
REMARK  261  A    between atoms: _642  and  _645
REMARK  262  A    between atoms: _647  and  _649
REMARK  263  A    between atoms: _649  and  _650
REMARK  264  A    between atoms: _649  and  _652
REMARK  265  A    between atoms: _652  and  _653
REMARK  266  A    between atoms: _653  and  _654
REMARK  267  A    between atoms: _654  and  _655
REMARK  268  A    between atoms: _655  and  _656
REMARK  269  A    between atoms: _660  and  _662
REMARK  270  A    between atoms: _662  and  _663
REMARK  271  A    between atoms: _662  and  _665
REMARK  272  A    between atoms: _665  and  _666
REMARK  273  A    between atoms: _669  and  _671
REMARK  274  A    between atoms: _671  and  _672
REMARK  275  A    between atoms: _671  and  _674
REMARK  276  A    between atoms: _674  and  _675
REMARK  277  A    between atoms: _678  and  _680
REMARK  278  A    between atoms: _680  and  _681
REMARK  279  A    between atoms: _680  and  _683
REMARK  280  A    between atoms: _686  and  _688
REMARK  281  A    between atoms: _688  and  _689
REMARK  282  A    between atoms: _688  and  _691
REMARK  283  A    between atoms: _691  and  _692
REMARK  284  A    between atoms: _695  and  _697
REMARK  285  A    between atoms: _697  and  _698
REMARK  286  A    between atoms: _697  and  _700
REMARK  287  A    between atoms: _700  and  _701
REMARK                            x       y       z     vdW  Elec       q    Type
REMARK                         _______ _______ _______ _____ _____    ______ ____
ROOT
ATOM      1  O   HOH     1      16.190  12.717  34.317  0.00  0.00    +0.000 OA
ENDROOT
TORSDOF 0
REMARK  Name = ../refined-set-2016/1ie9/1ie9_pocket.pdb
REMARK  287 active torsions:
REMARK  status: ('A' for Active; 'I' for Inactive)
REMARK    1  A    between atoms: _1  and  _3
REMARK    2  A    between atoms: _3  and  _4
REMARK    3  A    between atoms: _3  and  _6
REMARK    4  A    between atoms: _6  and  _7
REMARK    5  A    between atoms: _10  and  _12
REMARK    6  A    between atoms: _12  and  _13
REMARK    7  A    between atoms: _12  and  _15
REMARK    8  A    between atoms: _15  and  _16
REMARK    9  A    between atoms: _21  and  _22
REMARK   10  A    between atoms: _24  and  _26
REMARK   11  A    between atoms: _26  and  _27
REMARK   12  A    between atoms: _26  and  _29
REMARK   13  A    between atoms: _29  and  _30
REMARK   14  A    between atoms: _34  and  _35
REMARK   15  A    between atoms: _40  and  _42
REMARK   16  A    between atoms: _42  and  _43
REMARK   17  A    between atoms: _42  and  _45
REMARK   18  A    between atoms: _45  and  _46
REMARK   19  A    between atoms: _51  and  _52
REMARK   20  A    between atoms: _54  and  _56
REMARK   21  A    between atoms: _56  and  _57
REMARK   22  A    between atoms: _56  and  _59
REMARK   23  A    between atoms: _59  and  _60
REMARK   24  A    between atoms: _66  and  _68
REMARK   25  A    between atoms: _68  and  _69
REMARK   26  A    between atoms: _68  and  _71
REMARK   27  A    between atoms: _71  and  _72
REMARK   28  A    between atoms: _78  and  _80
REMARK   29  A    between atoms: _80  and  _81
REMARK   30  A    between atoms: _80  and  _83
REMARK   31  A    between atoms: _83  and  _84
REMARK   32  A    between atoms: _84  and  _85
REMARK   33  A    between atoms: _85  and  _86
REMARK   34  A    between atoms: _95  and  _97
REMARK   35  A    between atoms: _97  and  _98
REMARK   36  A    between atoms: _97  and  _100
REMARK   37  A    between atoms: _100  and  _101
REMARK   38  A    between atoms: _104  and  _106
REMARK   39  A    between atoms: _106  and  _107
REMARK   40  A    between atoms: _106  and  _109
REMARK   41  A    between atoms: _109  and  _110
REMARK   42  A    between atoms: _110  and  _111
REMARK   43  A    between atoms: _113  and  _115
REMARK   44  A    between atoms: _115  and  _116
REMARK   45  A    between atoms: _115  and  _118
REMARK   46  A    between atoms: _118  and  _119
REMARK   47  A    between atoms: _123  and  _124
REMARK   48  A    between atoms: _129  and  _131
REMARK   49  A    between atoms: _131  and  _132
REMARK   50  A    between atoms: _131  and  _134
REMARK   51  A    between atoms: _134  and  _135
REMARK   52  A    between atoms: _140  and  _142
REMARK   53  A    between atoms: _142  and  _143
REMARK   54  A    between atoms: _142  and  _145
REMARK   55  A    between atoms: _145  and  _146
REMARK   56  A    between atoms: _149  and  _151
REMARK   57  A    between atoms: _151  and  _152
REMARK   58  A    between atoms: _155  and  _157
REMARK   59  A    between atoms: _157  and  _158
REMARK   60  A    between atoms: _157  and  _160
REMARK   61  A    between atoms: _160  and  _161
REMARK   62  A    between atoms: _164  and  _166
REMARK   63  A    between atoms: _166  and  _167
REMARK   64  A    between atoms: _166  and  _169
REMARK   65  A    between atoms: _169  and  _170
REMARK   66  A    between atoms: _173  and  _175
REMARK   67  A    between atoms: _175  and  _176
REMARK   68  A    between atoms: _175  and  _178
REMARK   69  A    between atoms: _181  and  _183
REMARK   70  A    between atoms: _183  and  _184
REMARK   71  A    between atoms: _183  and  _186
REMARK   72  A    between atoms: _186  and  _187
REMARK   73  A    between atoms: _189  and  _191
REMARK   74  A    between atoms: _191  and  _192
REMARK   75  A    between atoms: _191  and  _194
REMARK   76  A    between atoms: _194  and  _195
REMARK   77  A    between atoms: _200  and  _201
REMARK   78  A    between atoms: _203  and  _205
REMARK   79  A    between atoms: _205  and  _206
REMARK   80  A    between atoms: _205  and  _208
REMARK   81  A    between atoms: _208  and  _209
REMARK   82  A    between atoms: _211  and  _213
REMARK   83  A    between atoms: _213  and  _214
REMARK   84  A    between atoms: _213  and  _216
REMARK   85  A    between atoms: _216  and  _217
REMARK   86  A    between atoms: _220  and  _222
REMARK   87  A    between atoms: _222  and  _223
REMARK   88  A    between atoms: _222  and  _225
REMARK   89  A    between atoms: _225  and  _226
REMARK   90  A    between atoms: _226  and  _227
REMARK   91  A    between atoms: _227  and  _228
REMARK   92  A    between atoms: _228  and  _229
REMARK   93  A    between atoms: _233  and  _235
REMARK   94  A    between atoms: _235  and  _236
REMARK   95  A    between atoms: _235  and  _238
REMARK   96  A    between atoms: _241  and  _243
REMARK   97  A    between atoms: _243  and  _244
REMARK   98  A    between atoms: _247  and  _249
REMARK   99  A    between atoms: _249  and  _250
REMARK  100  A    between atoms: _249  and  _252
REMARK  101  A    between atoms: _252  and  _253
REMARK  102  A    between atoms: _256  and  _258
REMARK  103  A    between atoms: _258  and  _259
REMARK  104  A    between atoms: _258  and  _261
REMARK  105  A    between atoms: _261  and  _262
REMARK  106  A    between atoms: _262  and  _263
REMARK  107  A    between atoms: _266  and  _268
REMARK  108  A    between atoms: _268  and  _269
REMARK  109  A    between atoms: _268  and  _271
REMARK  110  A    between atoms: _274  and  _276
REMARK  111  A    between atoms: _276  and  _277
REMARK  112  A    between atoms: _276  and  _279
REMARK  113  A    between atoms: _279  and  _280
REMARK  114  A    between atoms: _283  and  _285
REMARK  115  A    between atoms: _285  and  _286
REMARK  116  A    between atoms: _285  and  _288
REMARK  117  A    between atoms: _288  and  _289
REMARK  118  A    between atoms: _289  and  _290
REMARK  119  A    between atoms: _292  and  _294
REMARK  120  A    between atoms: _294  and  _295
REMARK  121  A    between atoms: _294  and  _297
REMARK  122  A    between atoms: _297  and  _298
REMARK  123  A    between atoms: _301  and  _303
REMARK  124  A    between atoms: _303  and  _304
REMARK  125  A    between atoms: _303  and  _306
REMARK  126  A    between atoms: _306  and  _307
REMARK  127  A    between atoms: _307  and  _308
REMARK  128  A    between atoms: _308  and  _309
REMARK  129  A    between atoms: _318  and  _320
REMARK  130  A    between atoms: _320  and  _321
REMARK  131  A    between atoms: _320  and  _323
REMARK  132  A    between atoms: _323  and  _324
REMARK  133  A    between atoms: _326  and  _328
REMARK  134  A    between atoms: _328  and  _329
REMARK  135  A    between atoms: _328  and  _331
REMARK  136  A    between atoms: _331  and  _332
REMARK  137  A    between atoms: _337  and  _339
REMARK  138  A    between atoms: _339  and  _340
REMARK  139  A    between atoms: _339  and  _342
REMARK  140  A    between atoms: _342  and  _343
REMARK  141  A    between atoms: _343  and  _344
REMARK  142  A    between atoms: _347  and  _349
REMARK  143  A    between atoms: _349  and  _350
REMARK  144  A    between atoms: _349  and  _352
REMARK  145  A    between atoms: _352  and  _353
REMARK  146  A    between atoms: _355  and  _357
REMARK  147  A    between atoms: _357  and  _358
REMARK  148  A    between atoms: _357  and  _360
REMARK  149  A    between atoms: _360  and  _361
REMARK  150  A    between atoms: _367  and  _369
REMARK  151  A    between atoms: _369  and  _370
REMARK  152  A    between atoms: _369  and  _372
REMARK  153  A    between atoms: _372  and  _373
REMARK  154  A    between atoms: _375  and  _377
REMARK  155  A    between atoms: _377  and  _378
REMARK  156  A    between atoms: _377  and  _380
REMARK  157  A    between atoms: _380  and  _381
REMARK  158  A    between atoms: _391  and  _393
REMARK  159  A    between atoms: _393  and  _394
REMARK  160  A    between atoms: _393  and  _396
REMARK  161  A    between atoms: _396  and  _397
REMARK  162  A    between atoms: _400  and  _402
REMARK  163  A    between atoms: _402  and  _403
REMARK  164  A    between atoms: _402  and  _405
REMARK  165  A    between atoms: _407  and  _409
REMARK  166  A    between atoms: _409  and  _410
REMARK  167  A    between atoms: _409  and  _412
REMARK  168  A    between atoms: _412  and  _413
REMARK  169  A    between atoms: _418  and  _419
REMARK  170  A    between atoms: _421  and  _423
REMARK  171  A    between atoms: _423  and  _424
REMARK  172  A    between atoms: _423  and  _426
REMARK  173  A    between atoms: _426  and  _427
REMARK  174  A    between atoms: _427  and  _428
REMARK  175  A    between atoms: _428  and  _429
REMARK  176  A    between atoms: _429  and  _430
REMARK  177  A    between atoms: _434  and  _436
REMARK  178  A    between atoms: _436  and  _437
REMARK  179  A    between atoms: _436  and  _439
REMARK  180  A    between atoms: _439  and  _440
REMARK  181  A    between atoms: _445  and  _446
REMARK  182  A    between atoms: _448  and  _450
REMARK  183  A    between atoms: _450  and  _451
REMARK  184  A    between atoms: _450  and  _453
REMARK  185  A    between atoms: _453  and  _454
REMARK  186  A    between atoms: _454  and  _455
REMARK  187  A    between atoms: _455  and  _456
REMARK  188  A    between atoms: _465  and  _467
REMARK  189  A    between atoms: _467  and  _468
REMARK  190  A    between atoms: _467  and  _470
REMARK  191  A    between atoms: _473  and  _475
REMARK  192  A    between atoms: _475  and  _476
REMARK  193  A    between atoms: _475  and  _478
REMARK  194  A    between atoms: _478  and  _479
REMARK  195  A    between atoms: _482  and  _484
REMARK  196  A    between atoms: _484  and  _485
REMARK  197  A    between atoms: _484  and  _487
REMARK  198  A    between atoms: _490  and  _492
REMARK  199  A    between atoms: _492  and  _493
REMARK  200  A    between atoms: _492  and  _495
REMARK  201  A    between atoms: _495  and  _496
REMARK  202  A    between atoms: _499  and  _501
REMARK  203  A    between atoms: _501  and  _502
REMARK  204  A    between atoms: _505  and  _507
REMARK  205  A    between atoms: _507  and  _508
REMARK  206  A    between atoms: _510  and  _512
REMARK  207  A    between atoms: _512  and  _513
REMARK  208  A    between atoms: _512  and  _515
REMARK  209  A    between atoms: _515  and  _516
REMARK  210  A    between atoms: _521  and  _523
REMARK  211  A    between atoms: _523  and  _524
REMARK  212  A    between atoms: _523  and  _526
REMARK  213  A    between atoms: _526  and  _527
REMARK  214  A    between atoms: _530  and  _532
REMARK  215  A    between atoms: _532  and  _533
REMARK  216  A    between atoms: _532  and  _535
REMARK  217  A    between atoms: _535  and  _536
REMARK  218  A    between atoms: _539  and  _541
REMARK  219  A    between atoms: _541  and  _542
REMARK  220  A    between atoms: _541  and  _544
REMARK  221  A    between atoms: _544  and  _545
REMARK  222  A    between atoms: _548  and  _550
REMARK  223  A    between atoms: _550  and  _551
REMARK  224  A    between atoms: _550  and  _553
REMARK  225  A    between atoms: _553  and  _554
REMARK  226  A    between atoms: _554  and  _555
REMARK  227  A    between atoms: _560  and  _562
REMARK  228  A    between atoms: _562  and  _563
REMARK  229  A    between atoms: _562  and  _565
REMARK  230  A    between atoms: _565  and  _566
REMARK  231  A    between atoms: _569  and  _571
REMARK  232  A    between atoms: _571  and  _572
REMARK  233  A    between atoms: _571  and  _574
REMARK  234  A    between atoms: _574  and  _575
REMARK  235  A    between atoms: _580  and  _582
REMARK  236  A    between atoms: _582  and  _583
REMARK  237  A    between atoms: _582  and  _585
REMARK  238  A    between atoms: _585  and  _586
REMARK  239  A    between atoms: _588  and  _590
REMARK  240  A    between atoms: _590  and  _591
REMARK  241  A    between atoms: _590  and  _593
REMARK  242  A    between atoms: _593  and  _594
REMARK  243  A    between atoms: _594  and  _595
REMARK  244  A    between atoms: _600  and  _602
REMARK  245  A    between atoms: _602  and  _603
REMARK  246  A    between atoms: _602  and  _605
REMARK  247  A    between atoms: _605  and  _606
REMARK  248  A    between atoms: _611  and  _612
REMARK  249  A    between atoms: _614  and  _616
REMARK  250  A    between atoms: _616  and  _617
REMARK  251  A    between atoms: _616  and  _619
REMARK  252  A    between atoms: _619  and  _620
REMARK  253  A    between atoms: _620  and  _621
REMARK  254  A    between atoms: _621  and  _622
REMARK  255  A    between atoms: _631  and  _633
REMARK  256  A    between atoms: _633  and  _634
REMARK  257  A    between atoms: _633  and  _636
REMARK  258  A    between atoms: _636  and  _637
REMARK  259  A    between atoms: _640  and  _642
REMARK  260  A    between atoms: _642  and  _643
REMARK  261  A    between atoms: _642  and  _645
REMARK  262  A    between atoms: _647  and  _649
REMARK  263  A    between atoms: _649  and  _650
REMARK  264  A    between atoms: _649  and  _652
REMARK  265  A    between atoms: _652  and  _653
REMARK  266  A    between atoms: _653  and  _654
REMARK  267  A    between atoms: _654  and  _655
REMARK  268  A    between atoms: _655  and  _656
REMARK  269  A    between atoms: _660  and  _662
REMARK  270  A    between atoms: _662  and  _663
REMARK  271  A    between atoms: _662  and  _665
REMARK  272  A    between atoms: _665  and  _666
REMARK  273  A    between atoms: _669  and  _671
REMARK  274  A    between atoms: _671  and  _672
REMARK  275  A    between atoms: _671  and  _674
REMARK  276  A    between atoms: _674  and  _675
REMARK  277  A    between atoms: _678  and  _680
REMARK  278  A    between atoms: _680  and  _681
REMARK  279  A    between atoms: _680  and  _683
REMARK  280  A    between atoms: _686  and  _688
REMARK  281  A    between atoms: _688  and  _689
REMARK  282  A    between atoms: _688  and  _691
REMARK  283  A    between atoms: _691  and  _692
REMARK  284  A    between atoms: _695  and  _697
REMARK  285  A    between atoms: _697  and  _698
REMARK  286  A    between atoms: _697  and  _700
REMARK  287  A    between atoms: _700  and  _701
REMARK                            x       y       z     vdW  Elec       q    Type
REMARK                         _______ _______ _______ _____ _____    ______ ____
ROOT
ATOM      1  O   HOH     1       4.360  26.726  42.405  0.00  0.00    +0.000 OA
ENDROOT
TORSDOF 0
REMARK  Name = ../refined-set-2016/1ie9/1ie9_pocket.pdb
REMARK  287 active torsions:
REMARK  status: ('A' for Active; 'I' for Inactive)
REMARK    1  A    between atoms: _1  and  _3
REMARK    2  A    between atoms: _3  and  _4
REMARK    3  A    between atoms: _3  and  _6
REMARK    4  A    between atoms: _6  and  _7
REMARK    5  A    between atoms: _10  and  _12
REMARK    6  A    between atoms: _12  and  _13
REMARK    7  A    between atoms: _12  and  _15
REMARK    8  A    between atoms: _15  and  _16
REMARK    9  A    between atoms: _21  and  _22
REMARK   10  A    between atoms: _24  and  _26
REMARK   11  A    between atoms: _26  and  _27
REMARK   12  A    between atoms: _26  and  _29
REMARK   13  A    between atoms: _29  and  _30
REMARK   14  A    between atoms: _34  and  _35
REMARK   15  A    between atoms: _40  and  _42
REMARK   16  A    between atoms: _42  and  _43
REMARK   17  A    between atoms: _42  and  _45
REMARK   18  A    between atoms: _45  and  _46
REMARK   19  A    between atoms: _51  and  _52
REMARK   20  A    between atoms: _54  and  _56
REMARK   21  A    between atoms: _56  and  _57
REMARK   22  A    between atoms: _56  and  _59
REMARK   23  A    between atoms: _59  and  _60
REMARK   24  A    between atoms: _66  and  _68
REMARK   25  A    between atoms: _68  and  _69
REMARK   26  A    between atoms: _68  and  _71
REMARK   27  A    between atoms: _71  and  _72
REMARK   28  A    between atoms: _78  and  _80
REMARK   29  A    between atoms: _80  and  _81
REMARK   30  A    between atoms: _80  and  _83
REMARK   31  A    between atoms: _83  and  _84
REMARK   32  A    between atoms: _84  and  _85
REMARK   33  A    between atoms: _85  and  _86
REMARK   34  A    between atoms: _95  and  _97
REMARK   35  A    between atoms: _97  and  _98
REMARK   36  A    between atoms: _97  and  _100
REMARK   37  A    between atoms: _100  and  _101
REMARK   38  A    between atoms: _104  and  _106
REMARK   39  A    between atoms: _106  and  _107
REMARK   40  A    between atoms: _106  and  _109
REMARK   41  A    between atoms: _109  and  _110
REMARK   42  A    between atoms: _110  and  _111
REMARK   43  A    between atoms: _113  and  _115
REMARK   44  A    between atoms: _115  and  _116
REMARK   45  A    between atoms: _115  and  _118
REMARK   46  A    between atoms: _118  and  _119
REMARK   47  A    between atoms: _123  and  _124
REMARK   48  A    between atoms: _129  and  _131
REMARK   49  A    between atoms: _131  and  _132
REMARK   50  A    between atoms: _131  and  _134
REMARK   51  A    between atoms: _134  and  _135
REMARK   52  A    between atoms: _140  and  _142
REMARK   53  A    between atoms: _142  and  _143
REMARK   54  A    between atoms: _142  and  _145
REMARK   55  A    between atoms: _145  and  _146
REMARK   56  A    between atoms: _149  and  _151
REMARK   57  A    between atoms: _151  and  _152
REMARK   58  A    between atoms: _155  and  _157
REMARK   59  A    between atoms: _157  and  _158
REMARK   60  A    between atoms: _157  and  _160
REMARK   61  A    between atoms: _160  and  _161
REMARK   62  A    between atoms: _164  and  _166
REMARK   63  A    between atoms: _166  and  _167
REMARK   64  A    between atoms: _166  and  _169
REMARK   65  A    between atoms: _169  and  _170
REMARK   66  A    between atoms: _173  and  _175
REMARK   67  A    between atoms: _175  and  _176
REMARK   68  A    between atoms: _175  and  _178
REMARK   69  A    between atoms: _181  and  _183
REMARK   70  A    between atoms: _183  and  _184
REMARK   71  A    between atoms: _183  and  _186
REMARK   72  A    between atoms: _186  and  _187
REMARK   73  A    between atoms: _189  and  _191
REMARK   74  A    between atoms: _191  and  _192
REMARK   75  A    between atoms: _191  and  _194
REMARK   76  A    between atoms: _194  and  _195
REMARK   77  A    between atoms: _200  and  _201
REMARK   78  A    between atoms: _203  and  _205
REMARK   79  A    between atoms: _205  and  _206
REMARK   80  A    between atoms: _205  and  _208
REMARK   81  A    between atoms: _208  and  _209
REMARK   82  A    between atoms: _211  and  _213
REMARK   83  A    between atoms: _213  and  _214
REMARK   84  A    between atoms: _213  and  _216
REMARK   85  A    between atoms: _216  and  _217
REMARK   86  A    between atoms: _220  and  _222
REMARK   87  A    between atoms: _222  and  _223
REMARK   88  A    between atoms: _222  and  _225
REMARK   89  A    between atoms: _225  and  _226
REMARK   90  A    between atoms: _226  and  _227
REMARK   91  A    between atoms: _227  and  _228
REMARK   92  A    between atoms: _228  and  _229
REMARK   93  A    between atoms: _233  and  _235
REMARK   94  A    between atoms: _235  and  _236
REMARK   95  A    between atoms: _235  and  _238
REMARK   96  A    between atoms: _241  and  _243
REMARK   97  A    between atoms: _243  and  _244
REMARK   98  A    between atoms: _247  and  _249
REMARK   99  A    between atoms: _249  and  _250
REMARK  100  A    between atoms: _249  and  _252
REMARK  101  A    between atoms: _252  and  _253
REMARK  102  A    between atoms: _256  and  _258
REMARK  103  A    between atoms: _258  and  _259
REMARK  104  A    between atoms: _258  and  _261
REMARK  105  A    between atoms: _261  and  _262
REMARK  106  A    between atoms: _262  and  _263
REMARK  107  A    between atoms: _266  and  _268
REMARK  108  A    between atoms: _268  and  _269
REMARK  109  A    between atoms: _268  and  _271
REMARK  110  A    between atoms: _274  and  _276
REMARK  111  A    between atoms: _276  and  _277
REMARK  112  A    between atoms: _276  and  _279
REMARK  113  A    between atoms: _279  and  _280
REMARK  114  A    between atoms: _283  and  _285
REMARK  115  A    between atoms: _285  and  _286
REMARK  116  A    between atoms: _285  and  _288
REMARK  117  A    between atoms: _288  and  _289
REMARK  118  A    between atoms: _289  and  _290
REMARK  119  A    between atoms: _292  and  _294
REMARK  120  A    between atoms: _294  and  _295
REMARK  121  A    between atoms: _294  and  _297
REMARK  122  A    between atoms: _297  and  _298
REMARK  123  A    between atoms: _301  and  _303
REMARK  124  A    between atoms: _303  and  _304
REMARK  125  A    between atoms: _303  and  _306
REMARK  126  A    between atoms: _306  and  _307
REMARK  127  A    between atoms: _307  and  _308
REMARK  128  A    between atoms: _308  and  _309
REMARK  129  A    between atoms: _318  and  _320
REMARK  130  A    between atoms: _320  and  _321
REMARK  131  A    between atoms: _320  and  _323
REMARK  132  A    between atoms: _323  and  _324
REMARK  133  A    between atoms: _326  and  _328
REMARK  134  A    between atoms: _328  and  _329
REMARK  135  A    between atoms: _328  and  _331
REMARK  136  A    between atoms: _331  and  _332
REMARK  137  A    between atoms: _337  and  _339
REMARK  138  A    between atoms: _339  and  _340
REMARK  139  A    between atoms: _339  and  _342
REMARK  140  A    between atoms: _342  and  _343
REMARK  141  A    between atoms: _343  and  _344
REMARK  142  A    between atoms: _347  and  _349
REMARK  143  A    between atoms: _349  and  _350
REMARK  144  A    between atoms: _349  and  _352
REMARK  145  A    between atoms: _352  and  _353
REMARK  146  A    between atoms: _355  and  _357
REMARK  147  A    between atoms: _357  and  _358
REMARK  148  A    between atoms: _357  and  _360
REMARK  149  A    between atoms: _360  and  _361
REMARK  150  A    between atoms: _367  and  _369
REMARK  151  A    between atoms: _369  and  _370
REMARK  152  A    between atoms: _369  and  _372
REMARK  153  A    between atoms: _372  and  _373
REMARK  154  A    between atoms: _375  and  _377
REMARK  155  A    between atoms: _377  and  _378
REMARK  156  A    between atoms: _377  and  _380
REMARK  157  A    between atoms: _380  and  _381
REMARK  158  A    between atoms: _391  and  _393
REMARK  159  A    between atoms: _393  and  _394
REMARK  160  A    between atoms: _393  and  _396
REMARK  161  A    between atoms: _396  and  _397
REMARK  162  A    between atoms: _400  and  _402
REMARK  163  A    between atoms: _402  and  _403
REMARK  164  A    between atoms: _402  and  _405
REMARK  165  A    between atoms: _407  and  _409
REMARK  166  A    between atoms: _409  and  _410
REMARK  167  A    between atoms: _409  and  _412
REMARK  168  A    between atoms: _412  and  _413
REMARK  169  A    between atoms: _418  and  _419
REMARK  170  A    between atoms: _421  and  _423
REMARK  171  A    between atoms: _423  and  _424
REMARK  172  A    between atoms: _423  and  _426
REMARK  173  A    between atoms: _426  and  _427
REMARK  174  A    between atoms: _427  and  _428
REMARK  175  A    between atoms: _428  and  _429
REMARK  176  A    between atoms: _429  and  _430
REMARK  177  A    between atoms: _434  and  _436
REMARK  178  A    between atoms: _436  and  _437
REMARK  179  A    between atoms: _436  and  _439
REMARK  180  A    between atoms: _439  and  _440
REMARK  181  A    between atoms: _445  and  _446
REMARK  182  A    between atoms: _448  and  _450
REMARK  183  A    between atoms: _450  and  _451
REMARK  184  A    between atoms: _450  and  _453
REMARK  185  A    between atoms: _453  and  _454
REMARK  186  A    between atoms: _454  and  _455
REMARK  187  A    between atoms: _455  and  _456
REMARK  188  A    between atoms: _465  and  _467
REMARK  189  A    between atoms: _467  and  _468
REMARK  190  A    between atoms: _467  and  _470
REMARK  191  A    between atoms: _473  and  _475
REMARK  192  A    between atoms: _475  and  _476
REMARK  193  A    between atoms: _475  and  _478
REMARK  194  A    between atoms: _478  and  _479
REMARK  195  A    between atoms: _482  and  _484
REMARK  196  A    between atoms: _484  and  _485
REMARK  197  A    between atoms: _484  and  _487
REMARK  198  A    between atoms: _490  and  _492
REMARK  199  A    between atoms: _492  and  _493
REMARK  200  A    between atoms: _492  and  _495
REMARK  201  A    between atoms: _495  and  _496
REMARK  202  A    between atoms: _499  and  _501
REMARK  203  A    between atoms: _501  and  _502
REMARK  204  A    between atoms: _505  and  _507
REMARK  205  A    between atoms: _507  and  _508
REMARK  206  A    between atoms: _510  and  _512
REMARK  207  A    between atoms: _512  and  _513
REMARK  208  A    between atoms: _512  and  _515
REMARK  209  A    between atoms: _515  and  _516
REMARK  210  A    between atoms: _521  and  _523
REMARK  211  A    between atoms: _523  and  _524
REMARK  212  A    between atoms: _523  and  _526
REMARK  213  A    between atoms: _526  and  _527
REMARK  214  A    between atoms: _530  and  _532
REMARK  215  A    between atoms: _532  and  _533
REMARK  216  A    between atoms: _532  and  _535
REMARK  217  A    between atoms: _535  and  _536
REMARK  218  A    between atoms: _539  and  _541
REMARK  219  A    between atoms: _541  and  _542
REMARK  220  A    between atoms: _541  and  _544
REMARK  221  A    between atoms: _544  and  _545
REMARK  222  A    between atoms: _548  and  _550
REMARK  223  A    between atoms: _550  and  _551
REMARK  224  A    between atoms: _550  and  _553
REMARK  225  A    between atoms: _553  and  _554
REMARK  226  A    between atoms: _554  and  _555
REMARK  227  A    between atoms: _560  and  _562
REMARK  228  A    between atoms: _562  and  _563
REMARK  229  A    between atoms: _562  and  _565
REMARK  230  A    between atoms: _565  and  _566
REMARK  231  A    between atoms: _569  and  _571
REMARK  232  A    between atoms: _571  and  _572
REMARK  233  A    between atoms: _571  and  _574
REMARK  234  A    between atoms: _574  and  _575
REMARK  235  A    between atoms: _580  and  _582
REMARK  236  A    between atoms: _582  and  _583
REMARK  237  A    between atoms: _582  and  _585
REMARK  238  A    between atoms: _585  and  _586
REMARK  239  A    between atoms: _588  and  _590
REMARK  240  A    between atoms: _590  and  _591
REMARK  241  A    between atoms: _590  and  _593
REMARK  242  A    between atoms: _593  and  _594
REMARK  243  A    between atoms: _594  and  _595
REMARK  244  A    between atoms: _600  and  _602
REMARK  245  A    between atoms: _602  and  _603
REMARK  246  A    between atoms: _602  and  _605
REMARK  247  A    between atoms: _605  and  _606
REMARK  248  A    between atoms: _611  and  _612
REMARK  249  A    between atoms: _614  and  _616
REMARK  250  A    between atoms: _616  and  _617
REMARK  251  A    between atoms: _616  and  _619
REMARK  252  A    between atoms: _619  and  _620
REMARK  253  A    between atoms: _620  and  _621
REMARK  254  A    between atoms: _621  and  _622
REMARK  255  A    between atoms: _631  and  _633
REMARK  256  A    between atoms: _633  and  _634
REMARK  257  A    between atoms: _633  and  _636
REMARK  258  A    between atoms: _636  and  _637
REMARK  259  A    between atoms: _640  and  _642
REMARK  260  A    between atoms: _642  and  _643
REMARK  261  A    between atoms: _642  and  _645
REMARK  262  A    between atoms: _647  and  _649
REMARK  263  A    between atoms: _649  and  _650
REMARK  264  A    between atoms: _649  and  _652
REMARK  265  A    between atoms: _652  and  _653
REMARK  266  A    between atoms: _653  and  _654
REMARK  267  A    between atoms: _654  and  _655
REMARK  268  A    between atoms: _655  and  _656
REMARK  269  A    between atoms: _660  and  _662
REMARK  270  A    between atoms: _662  and  _663
REMARK  271  A    between atoms: _662  and  _665
REMARK  272  A    between atoms: _665  and  _666
REMARK  273  A    between atoms: _669  and  _671
REMARK  274  A    between atoms: _671  and  _672
REMARK  275  A    between atoms: _671  and  _674
REMARK  276  A    between atoms: _674  and  _675
REMARK  277  A    between atoms: _678  and  _680
REMARK  278  A    between atoms: _680  and  _681
REMARK  279  A    between atoms: _680  and  _683
REMARK  280  A    between atoms: _686  and  _688
REMARK  281  A    between atoms: _688  and  _689
REMARK  282  A    between atoms: _688  and  _691
REMARK  283  A    between atoms: _691  and  _692
REMARK  284  A    between atoms: _695  and  _697
REMARK  285  A    between atoms: _697  and  _698
REMARK  286  A    between atoms: _697  and  _700
REMARK  287  A    between atoms: _700  and  _701
REMARK                            x       y       z     vdW  Elec       q    Type
REMARK                         _______ _______ _______ _____ _____    ______ ____
ROOT
ATOM      1  O   HOH     1      22.988  14.850  34.472  0.00  0.00    +0.000 OA
ENDROOT
TORSDOF 0
REMARK  Name = ../refined-set-2016/1ie9/1ie9_pocket.pdb
REMARK  287 active torsions:
REMARK  status: ('A' for Active; 'I' for Inactive)
REMARK    1  A    between atoms: _1  and  _3
REMARK    2  A    between atoms: _3  and  _4
REMARK    3  A    between atoms: _3  and  _6
REMARK    4  A    between atoms: _6  and  _7
REMARK    5  A    between atoms: _10  and  _12
REMARK    6  A    between atoms: _12  and  _13
REMARK    7  A    between atoms: _12  and  _15
REMARK    8  A    between atoms: _15  and  _16
REMARK    9  A    between atoms: _21  and  _22
REMARK   10  A    between atoms: _24  and  _26
REMARK   11  A    between atoms: _26  and  _27
REMARK   12  A    between atoms: _26  and  _29
REMARK   13  A    between atoms: _29  and  _30
REMARK   14  A    between atoms: _34  and  _35
REMARK   15  A    between atoms: _40  and  _42
REMARK   16  A    between atoms: _42  and  _43
REMARK   17  A    between atoms: _42  and  _45
REMARK   18  A    between atoms: _45  and  _46
REMARK   19  A    between atoms: _51  and  _52
REMARK   20  A    between atoms: _54  and  _56
REMARK   21  A    between atoms: _56  and  _57
REMARK   22  A    between atoms: _56  and  _59
REMARK   23  A    between atoms: _59  and  _60
REMARK   24  A    between atoms: _66  and  _68
REMARK   25  A    between atoms: _68  and  _69
REMARK   26  A    between atoms: _68  and  _71
REMARK   27  A    between atoms: _71  and  _72
REMARK   28  A    between atoms: _78  and  _80
REMARK   29  A    between atoms: _80  and  _81
REMARK   30  A    between atoms: _80  and  _83
REMARK   31  A    between atoms: _83  and  _84
REMARK   32  A    between atoms: _84  and  _85
REMARK   33  A    between atoms: _85  and  _86
REMARK   34  A    between atoms: _95  and  _97
REMARK   35  A    between atoms: _97  and  _98
REMARK   36  A    between atoms: _97  and  _100
REMARK   37  A    between atoms: _100  and  _101
REMARK   38  A    between atoms: _104  and  _106
REMARK   39  A    between atoms: _106  and  _107
REMARK   40  A    between atoms: _106  and  _109
REMARK   41  A    between atoms: _109  and  _110
REMARK   42  A    between atoms: _110  and  _111
REMARK   43  A    between atoms: _113  and  _115
REMARK   44  A    between atoms: _115  and  _116
REMARK   45  A    between atoms: _115  and  _118
REMARK   46  A    between atoms: _118  and  _119
REMARK   47  A    between atoms: _123  and  _124
REMARK   48  A    between atoms: _129  and  _131
REMARK   49  A    between atoms: _131  and  _132
REMARK   50  A    between atoms: _131  and  _134
REMARK   51  A    between atoms: _134  and  _135
REMARK   52  A    between atoms: _140  and  _142
REMARK   53  A    between atoms: _142  and  _143
REMARK   54  A    between atoms: _142  and  _145
REMARK   55  A    between atoms: _145  and  _146
REMARK   56  A    between atoms: _149  and  _151
REMARK   57  A    between atoms: _151  and  _152
REMARK   58  A    between atoms: _155  and  _157
REMARK   59  A    between atoms: _157  and  _158
REMARK   60  A    between atoms: _157  and  _160
REMARK   61  A    between atoms: _160  and  _161
REMARK   62  A    between atoms: _164  and  _166
REMARK   63  A    between atoms: _166  and  _167
REMARK   64  A    between atoms: _166  and  _169
REMARK   65  A    between atoms: _169  and  _170
REMARK   66  A    between atoms: _173  and  _175
REMARK   67  A    between atoms: _175  and  _176
REMARK   68  A    between atoms: _175  and  _178
REMARK   69  A    between atoms: _181  and  _183
REMARK   70  A    between atoms: _183  and  _184
REMARK   71  A    between atoms: _183  and  _186
REMARK   72  A    between atoms: _186  and  _187
REMARK   73  A    between atoms: _189  and  _191
REMARK   74  A    between atoms: _191  and  _192
REMARK   75  A    between atoms: _191  and  _194
REMARK   76  A    between atoms: _194  and  _195
REMARK   77  A    between atoms: _200  and  _201
REMARK   78  A    between atoms: _203  and  _205
REMARK   79  A    between atoms: _205  and  _206
REMARK   80  A    between atoms: _205  and  _208
REMARK   81  A    between atoms: _208  and  _209
REMARK   82  A    between atoms: _211  and  _213
REMARK   83  A    between atoms: _213  and  _214
REMARK   84  A    between atoms: _213  and  _216
REMARK   85  A    between atoms: _216  and  _217
REMARK   86  A    between atoms: _220  and  _222
REMARK   87  A    between atoms: _222  and  _223
REMARK   88  A    between atoms: _222  and  _225
REMARK   89  A    between atoms: _225  and  _226
REMARK   90  A    between atoms: _226  and  _227
REMARK   91  A    between atoms: _227  and  _228
REMARK   92  A    between atoms: _228  and  _229
REMARK   93  A    between atoms: _233  and  _235
REMARK   94  A    between atoms: _235  and  _236
REMARK   95  A    between atoms: _235  and  _238
REMARK   96  A    between atoms: _241  and  _243
REMARK   97  A    between atoms: _243  and  _244
REMARK   98  A    between atoms: _247  and  _249
REMARK   99  A    between atoms: _249  and  _250
REMARK  100  A    between atoms: _249  and  _252
REMARK  101  A    between atoms: _252  and  _253
REMARK  102  A    between atoms: _256  and  _258
REMARK  103  A    between atoms: _258  and  _259
REMARK  104  A    between atoms: _258  and  _261
REMARK  105  A    between atoms: _261  and  _262
REMARK  106  A    between atoms: _262  and  _263
REMARK  107  A    between atoms: _266  and  _268
REMARK  108  A    between atoms: _268  and  _269
REMARK  109  A    between atoms: _268  and  _271
REMARK  110  A    between atoms: _274  and  _276
REMARK  111  A    between atoms: _276  and  _277
REMARK  112  A    between atoms: _276  and  _279
REMARK  113  A    between atoms: _279  and  _280
REMARK  114  A    between atoms: _283  and  _285
REMARK  115  A    between atoms: _285  and  _286
REMARK  116  A    between atoms: _285  and  _288
REMARK  117  A    between atoms: _288  and  _289
REMARK  118  A    between atoms: _289  and  _290
REMARK  119  A    between atoms: _292  and  _294
REMARK  120  A    between atoms: _294  and  _295
REMARK  121  A    between atoms: _294  and  _297
REMARK  122  A    between atoms: _297  and  _298
REMARK  123  A    between atoms: _301  and  _303
REMARK  124  A    between atoms: _303  and  _304
REMARK  125  A    between atoms: _303  and  _306
REMARK  126  A    between atoms: _306  and  _307
REMARK  127  A    between atoms: _307  and  _308
REMARK  128  A    between atoms: _308  and  _309
REMARK  129  A    between atoms: _318  and  _320
REMARK  130  A    between atoms: _320  and  _321
REMARK  131  A    between atoms: _320  and  _323
REMARK  132  A    between atoms: _323  and  _324
REMARK  133  A    between atoms: _326  and  _328
REMARK  134  A    between atoms: _328  and  _329
REMARK  135  A    between atoms: _328  and  _331
REMARK  136  A    between atoms: _331  and  _332
REMARK  137  A    between atoms: _337  and  _339
REMARK  138  A    between atoms: _339  and  _340
REMARK  139  A    between atoms: _339  and  _342
REMARK  140  A    between atoms: _342  and  _343
REMARK  141  A    between atoms: _343  and  _344
REMARK  142  A    between atoms: _347  and  _349
REMARK  143  A    between atoms: _349  and  _350
REMARK  144  A    between atoms: _349  and  _352
REMARK  145  A    between atoms: _352  and  _353
REMARK  146  A    between atoms: _355  and  _357
REMARK  147  A    between atoms: _357  and  _358
REMARK  148  A    between atoms: _357  and  _360
REMARK  149  A    between atoms: _360  and  _361
REMARK  150  A    between atoms: _367  and  _369
REMARK  151  A    between atoms: _369  and  _370
REMARK  152  A    between atoms: _369  and  _372
REMARK  153  A    between atoms: _372  and  _373
REMARK  154  A    between atoms: _375  and  _377
REMARK  155  A    between atoms: _377  and  _378
REMARK  156  A    between atoms: _377  and  _380
REMARK  157  A    between atoms: _380  and  _381
REMARK  158  A    between atoms: _391  and  _393
REMARK  159  A    between atoms: _393  and  _394
REMARK  160  A    between atoms: _393  and  _396
REMARK  161  A    between atoms: _396  and  _397
REMARK  162  A    between atoms: _400  and  _402
REMARK  163  A    between atoms: _402  and  _403
REMARK  164  A    between atoms: _402  and  _405
REMARK  165  A    between atoms: _407  and  _409
REMARK  166  A    between atoms: _409  and  _410
REMARK  167  A    between atoms: _409  and  _412
REMARK  168  A    between atoms: _412  and  _413
REMARK  169  A    between atoms: _418  and  _419
REMARK  170  A    between atoms: _421  and  _423
REMARK  171  A    between atoms: _423  and  _424
REMARK  172  A    between atoms: _423  and  _426
REMARK  173  A    between atoms: _426  and  _427
REMARK  174  A    between atoms: _427  and  _428
REMARK  175  A    between atoms: _428  and  _429
REMARK  176  A    between atoms: _429  and  _430
REMARK  177  A    between atoms: _434  and  _436
REMARK  178  A    between atoms: _436  and  _437
REMARK  179  A    between atoms: _436  and  _439
REMARK  180  A    between atoms: _439  and  _440
REMARK  181  A    between atoms: _445  and  _446
REMARK  182  A    between atoms: _448  and  _450
REMARK  183  A    between atoms: _450  and  _451
REMARK  184  A    between atoms: _450  and  _453
REMARK  185  A    between atoms: _453  and  _454
REMARK  186  A    between atoms: _454  and  _455
REMARK  187  A    between atoms: _455  and  _456
REMARK  188  A    between atoms: _465  and  _467
REMARK  189  A    between atoms: _467  and  _468
REMARK  190  A    between atoms: _467  and  _470
REMARK  191  A    between atoms: _473  and  _475
REMARK  192  A    between atoms: _475  and  _476
REMARK  193  A    between atoms: _475  and  _478
REMARK  194  A    between atoms: _478  and  _479
REMARK  195  A    between atoms: _482  and  _484
REMARK  196  A    between atoms: _484  and  _485
REMARK  197  A    between atoms: _484  and  _487
REMARK  198  A    between atoms: _490  and  _492
REMARK  199  A    between atoms: _492  and  _493
REMARK  200  A    between atoms: _492  and  _495
REMARK  201  A    between atoms: _495  and  _496
REMARK  202  A    between atoms: _499  and  _501
REMARK  203  A    between atoms: _501  and  _502
REMARK  204  A    between atoms: _505  and  _507
REMARK  205  A    between atoms: _507  and  _508
REMARK  206  A    between atoms: _510  and  _512
REMARK  207  A    between atoms: _512  and  _513
REMARK  208  A    between atoms: _512  and  _515
REMARK  209  A    between atoms: _515  and  _516
REMARK  210  A    between atoms: _521  and  _523
REMARK  211  A    between atoms: _523  and  _524
REMARK  212  A    between atoms: _523  and  _526
REMARK  213  A    between atoms: _526  and  _527
REMARK  214  A    between atoms: _530  and  _532
REMARK  215  A    between atoms: _532  and  _533
REMARK  216  A    between atoms: _532  and  _535
REMARK  217  A    between atoms: _535  and  _536
REMARK  218  A    between atoms: _539  and  _541
REMARK  219  A    between atoms: _541  and  _542
REMARK  220  A    between atoms: _541  and  _544
REMARK  221  A    between atoms: _544  and  _545
REMARK  222  A    between atoms: _548  and  _550
REMARK  223  A    between atoms: _550  and  _551
REMARK  224  A    between atoms: _550  and  _553
REMARK  225  A    between atoms: _553  and  _554
REMARK  226  A    between atoms: _554  and  _555
REMARK  227  A    between atoms: _560  and  _562
REMARK  228  A    between atoms: _562  and  _563
REMARK  229  A    between atoms: _562  and  _565
REMARK  230  A    between atoms: _565  and  _566
REMARK  231  A    between atoms: _569  and  _571
REMARK  232  A    between atoms: _571  and  _572
REMARK  233  A    between atoms: _571  and  _574
REMARK  234  A    between atoms: _574  and  _575
REMARK  235  A    between atoms: _580  and  _582
REMARK  236  A    between atoms: _582  and  _583
REMARK  237  A    between atoms: _582  and  _585
REMARK  238  A    between atoms: _585  and  _586
REMARK  239  A    between atoms: _588  and  _590
REMARK  240  A    between atoms: _590  and  _591
REMARK  241  A    between atoms: _590  and  _593
REMARK  242  A    between atoms: _593  and  _594
REMARK  243  A    between atoms: _594  and  _595
REMARK  244  A    between atoms: _600  and  _602
REMARK  245  A    between atoms: _602  and  _603
REMARK  246  A    between atoms: _602  and  _605
REMARK  247  A    between atoms: _605  and  _606
REMARK  248  A    between atoms: _611  and  _612
REMARK  249  A    between atoms: _614  and  _616
REMARK  250  A    between atoms: _616  and  _617
REMARK  251  A    between atoms: _616  and  _619
REMARK  252  A    between atoms: _619  and  _620
REMARK  253  A    between atoms: _620  and  _621
REMARK  254  A    between atoms: _621  and  _622
REMARK  255  A    between atoms: _631  and  _633
REMARK  256  A    between atoms: _633  and  _634
REMARK  257  A    between atoms: _633  and  _636
REMARK  258  A    between atoms: _636  and  _637
REMARK  259  A    between atoms: _640  and  _642
REMARK  260  A    between atoms: _642  and  _643
REMARK  261  A    between atoms: _642  and  _645
REMARK  262  A    between atoms: _647  and  _649
REMARK  263  A    between atoms: _649  and  _650
REMARK  264  A    between atoms: _649  and  _652
REMARK  265  A    between atoms: _652  and  _653
REMARK  266  A    between atoms: _653  and  _654
REMARK  267  A    between atoms: _654  and  _655
REMARK  268  A    between atoms: _655  and  _656
REMARK  269  A    between atoms: _660  and  _662
REMARK  270  A    between atoms: _662  and  _663
REMARK  271  A    between atoms: _662  and  _665
REMARK  272  A    between atoms: _665  and  _666
REMARK  273  A    between atoms: _669  and  _671
REMARK  274  A    between atoms: _671  and  _672
REMARK  275  A    between atoms: _671  and  _674
REMARK  276  A    between atoms: _674  and  _675
REMARK  277  A    between atoms: _678  and  _680
REMARK  278  A    between atoms: _680  and  _681
REMARK  279  A    between atoms: _680  and  _683
REMARK  280  A    between atoms: _686  and  _688
REMARK  281  A    between atoms: _688  and  _689
REMARK  282  A    between atoms: _688  and  _691
REMARK  283  A    between atoms: _691  and  _692
REMARK  284  A    between atoms: _695  and  _697
REMARK  285  A    between atoms: _697  and  _698
REMARK  286  A    between atoms: _697  and  _700
REMARK  287  A    between atoms: _700  and  _701
REMARK                            x       y       z     vdW  Elec       q    Type
REMARK                         _______ _______ _______ _____ _____    ______ ____
ROOT
ATOM      1  O   HOH     1       2.833  33.661  33.487  0.00  0.00    +0.000 OA
ENDROOT
TORSDOF 0
REMARK  Name = ../refined-set-2016/1ie9/1ie9_pocket.pdb
REMARK  287 active torsions:
REMARK  status: ('A' for Active; 'I' for Inactive)
REMARK    1  A    between atoms: _1  and  _3
REMARK    2  A    between atoms: _3  and  _4
REMARK    3  A    between atoms: _3  and  _6
REMARK    4  A    between atoms: _6  and  _7
REMARK    5  A    between atoms: _10  and  _12
REMARK    6  A    between atoms: _12  and  _13
REMARK    7  A    between atoms: _12  and  _15
REMARK    8  A    between atoms: _15  and  _16
REMARK    9  A    between atoms: _21  and  _22
REMARK   10  A    between atoms: _24  and  _26
REMARK   11  A    between atoms: _26  and  _27
REMARK   12  A    between atoms: _26  and  _29
REMARK   13  A    between atoms: _29  and  _30
REMARK   14  A    between atoms: _34  and  _35
REMARK   15  A    between atoms: _40  and  _42
REMARK   16  A    between atoms: _42  and  _43
REMARK   17  A    between atoms: _42  and  _45
REMARK   18  A    between atoms: _45  and  _46
REMARK   19  A    between atoms: _51  and  _52
REMARK   20  A    between atoms: _54  and  _56
REMARK   21  A    between atoms: _56  and  _57
REMARK   22  A    between atoms: _56  and  _59
REMARK   23  A    between atoms: _59  and  _60
REMARK   24  A    between atoms: _66  and  _68
REMARK   25  A    between atoms: _68  and  _69
REMARK   26  A    between atoms: _68  and  _71
REMARK   27  A    between atoms: _71  and  _72
REMARK   28  A    between atoms: _78  and  _80
REMARK   29  A    between atoms: _80  and  _81
REMARK   30  A    between atoms: _80  and  _83
REMARK   31  A    between atoms: _83  and  _84
REMARK   32  A    between atoms: _84  and  _85
REMARK   33  A    between atoms: _85  and  _86
REMARK   34  A    between atoms: _95  and  _97
REMARK   35  A    between atoms: _97  and  _98
REMARK   36  A    between atoms: _97  and  _100
REMARK   37  A    between atoms: _100  and  _101
REMARK   38  A    between atoms: _104  and  _106
REMARK   39  A    between atoms: _106  and  _107
REMARK   40  A    between atoms: _106  and  _109
REMARK   41  A    between atoms: _109  and  _110
REMARK   42  A    between atoms: _110  and  _111
REMARK   43  A    between atoms: _113  and  _115
REMARK   44  A    between atoms: _115  and  _116
REMARK   45  A    between atoms: _115  and  _118
REMARK   46  A    between atoms: _118  and  _119
REMARK   47  A    between atoms: _123  and  _124
REMARK   48  A    between atoms: _129  and  _131
REMARK   49  A    between atoms: _131  and  _132
REMARK   50  A    between atoms: _131  and  _134
REMARK   51  A    between atoms: _134  and  _135
REMARK   52  A    between atoms: _140  and  _142
REMARK   53  A    between atoms: _142  and  _143
REMARK   54  A    between atoms: _142  and  _145
REMARK   55  A    between atoms: _145  and  _146
REMARK   56  A    between atoms: _149  and  _151
REMARK   57  A    between atoms: _151  and  _152
REMARK   58  A    between atoms: _155  and  _157
REMARK   59  A    between atoms: _157  and  _158
REMARK   60  A    between atoms: _157  and  _160
REMARK   61  A    between atoms: _160  and  _161
REMARK   62  A    between atoms: _164  and  _166
REMARK   63  A    between atoms: _166  and  _167
REMARK   64  A    between atoms: _166  and  _169
REMARK   65  A    between atoms: _169  and  _170
REMARK   66  A    between atoms: _173  and  _175
REMARK   67  A    between atoms: _175  and  _176
REMARK   68  A    between atoms: _175  and  _178
REMARK   69  A    between atoms: _181  and  _183
REMARK   70  A    between atoms: _183  and  _184
REMARK   71  A    between atoms: _183  and  _186
REMARK   72  A    between atoms: _186  and  _187
REMARK   73  A    between atoms: _189  and  _191
REMARK   74  A    between atoms: _191  and  _192
REMARK   75  A    between atoms: _191  and  _194
REMARK   76  A    between atoms: _194  and  _195
REMARK   77  A    between atoms: _200  and  _201
REMARK   78  A    between atoms: _203  and  _205
REMARK   79  A    between atoms: _205  and  _206
REMARK   80  A    between atoms: _205  and  _208
REMARK   81  A    between atoms: _208  and  _209
REMARK   82  A    between atoms: _211  and  _213
REMARK   83  A    between atoms: _213  and  _214
REMARK   84  A    between atoms: _213  and  _216
REMARK   85  A    between atoms: _216  and  _217
REMARK   86  A    between atoms: _220  and  _222
REMARK   87  A    between atoms: _222  and  _223
REMARK   88  A    between atoms: _222  and  _225
REMARK   89  A    between atoms: _225  and  _226
REMARK   90  A    between atoms: _226  and  _227
REMARK   91  A    between atoms: _227  and  _228
REMARK   92  A    between atoms: _228  and  _229
REMARK   93  A    between atoms: _233  and  _235
REMARK   94  A    between atoms: _235  and  _236
REMARK   95  A    between atoms: _235  and  _238
REMARK   96  A    between atoms: _241  and  _243
REMARK   97  A    between atoms: _243  and  _244
REMARK   98  A    between atoms: _247  and  _249
REMARK   99  A    between atoms: _249  and  _250
REMARK  100  A    between atoms: _249  and  _252
REMARK  101  A    between atoms: _252  and  _253
REMARK  102  A    between atoms: _256  and  _258
REMARK  103  A    between atoms: _258  and  _259
REMARK  104  A    between atoms: _258  and  _261
REMARK  105  A    between atoms: _261  and  _262
REMARK  106  A    between atoms: _262  and  _263
REMARK  107  A    between atoms: _266  and  _268
REMARK  108  A    between atoms: _268  and  _269
REMARK  109  A    between atoms: _268  and  _271
REMARK  110  A    between atoms: _274  and  _276
REMARK  111  A    between atoms: _276  and  _277
REMARK  112  A    between atoms: _276  and  _279
REMARK  113  A    between atoms: _279  and  _280
REMARK  114  A    between atoms: _283  and  _285
REMARK  115  A    between atoms: _285  and  _286
REMARK  116  A    between atoms: _285  and  _288
REMARK  117  A    between atoms: _288  and  _289
REMARK  118  A    between atoms: _289  and  _290
REMARK  119  A    between atoms: _292  and  _294
REMARK  120  A    between atoms: _294  and  _295
REMARK  121  A    between atoms: _294  and  _297
REMARK  122  A    between atoms: _297  and  _298
REMARK  123  A    between atoms: _301  and  _303
REMARK  124  A    between atoms: _303  and  _304
REMARK  125  A    between atoms: _303  and  _306
REMARK  126  A    between atoms: _306  and  _307
REMARK  127  A    between atoms: _307  and  _308
REMARK  128  A    between atoms: _308  and  _309
REMARK  129  A    between atoms: _318  and  _320
REMARK  130  A    between atoms: _320  and  _321
REMARK  131  A    between atoms: _320  and  _323
REMARK  132  A    between atoms: _323  and  _324
REMARK  133  A    between atoms: _326  and  _328
REMARK  134  A    between atoms: _328  and  _329
REMARK  135  A    between atoms: _328  and  _331
REMARK  136  A    between atoms: _331  and  _332
REMARK  137  A    between atoms: _337  and  _339
REMARK  138  A    between atoms: _339  and  _340
REMARK  139  A    between atoms: _339  and  _342
REMARK  140  A    between atoms: _342  and  _343
REMARK  141  A    between atoms: _343  and  _344
REMARK  142  A    between atoms: _347  and  _349
REMARK  143  A    between atoms: _349  and  _350
REMARK  144  A    between atoms: _349  and  _352
REMARK  145  A    between atoms: _352  and  _353
REMARK  146  A    between atoms: _355  and  _357
REMARK  147  A    between atoms: _357  and  _358
REMARK  148  A    between atoms: _357  and  _360
REMARK  149  A    between atoms: _360  and  _361
REMARK  150  A    between atoms: _367  and  _369
REMARK  151  A    between atoms: _369  and  _370
REMARK  152  A    between atoms: _369  and  _372
REMARK  153  A    between atoms: _372  and  _373
REMARK  154  A    between atoms: _375  and  _377
REMARK  155  A    between atoms: _377  and  _378
REMARK  156  A    between atoms: _377  and  _380
REMARK  157  A    between atoms: _380  and  _381
REMARK  158  A    between atoms: _391  and  _393
REMARK  159  A    between atoms: _393  and  _394
REMARK  160  A    between atoms: _393  and  _396
REMARK  161  A    between atoms: _396  and  _397
REMARK  162  A    between atoms: _400  and  _402
REMARK  163  A    between atoms: _402  and  _403
REMARK  164  A    between atoms: _402  and  _405
REMARK  165  A    between atoms: _407  and  _409
REMARK  166  A    between atoms: _409  and  _410
REMARK  167  A    between atoms: _409  and  _412
REMARK  168  A    between atoms: _412  and  _413
REMARK  169  A    between atoms: _418  and  _419
REMARK  170  A    between atoms: _421  and  _423
REMARK  171  A    between atoms: _423  and  _424
REMARK  172  A    between atoms: _423  and  _426
REMARK  173  A    between atoms: _426  and  _427
REMARK  174  A    between atoms: _427  and  _428
REMARK  175  A    between atoms: _428  and  _429
REMARK  176  A    between atoms: _429  and  _430
REMARK  177  A    between atoms: _434  and  _436
REMARK  178  A    between atoms: _436  and  _437
REMARK  179  A    between atoms: _436  and  _439
REMARK  180  A    between atoms: _439  and  _440
REMARK  181  A    between atoms: _445  and  _446
REMARK  182  A    between atoms: _448  and  _450
REMARK  183  A    between atoms: _450  and  _451
REMARK  184  A    between atoms: _450  and  _453
REMARK  185  A    between atoms: _453  and  _454
REMARK  186  A    between atoms: _454  and  _455
REMARK  187  A    between atoms: _455  and  _456
REMARK  188  A    between atoms: _465  and  _467
REMARK  189  A    between atoms: _467  and  _468
REMARK  190  A    between atoms: _467  and  _470
REMARK  191  A    between atoms: _473  and  _475
REMARK  192  A    between atoms: _475  and  _476
REMARK  193  A    between atoms: _475  and  _478
REMARK  194  A    between atoms: _478  and  _479
REMARK  195  A    between atoms: _482  and  _484
REMARK  196  A    between atoms: _484  and  _485
REMARK  197  A    between atoms: _484  and  _487
REMARK  198  A    between atoms: _490  and  _492
REMARK  199  A    between atoms: _492  and  _493
REMARK  200  A    between atoms: _492  and  _495
REMARK  201  A    between atoms: _495  and  _496
REMARK  202  A    between atoms: _499  and  _501
REMARK  203  A    between atoms: _501  and  _502
REMARK  204  A    between atoms: _505  and  _507
REMARK  205  A    between atoms: _507  and  _508
REMARK  206  A    between atoms: _510  and  _512
REMARK  207  A    between atoms: _512  and  _513
REMARK  208  A    between atoms: _512  and  _515
REMARK  209  A    between atoms: _515  and  _516
REMARK  210  A    between atoms: _521  and  _523
REMARK  211  A    between atoms: _523  and  _524
REMARK  212  A    between atoms: _523  and  _526
REMARK  213  A    between atoms: _526  and  _527
REMARK  214  A    between atoms: _530  and  _532
REMARK  215  A    between atoms: _532  and  _533
REMARK  216  A    between atoms: _532  and  _535
REMARK  217  A    between atoms: _535  and  _536
REMARK  218  A    between atoms: _539  and  _541
REMARK  219  A    between atoms: _541  and  _542
REMARK  220  A    between atoms: _541  and  _544
REMARK  221  A    between atoms: _544  and  _545
REMARK  222  A    between atoms: _548  and  _550
REMARK  223  A    between atoms: _550  and  _551
REMARK  224  A    between atoms: _550  and  _553
REMARK  225  A    between atoms: _553  and  _554
REMARK  226  A    between atoms: _554  and  _555
REMARK  227  A    between atoms: _560  and  _562
REMARK  228  A    between atoms: _562  and  _563
REMARK  229  A    between atoms: _562  and  _565
REMARK  230  A    between atoms: _565  and  _566
REMARK  231  A    between atoms: _569  and  _571
REMARK  232  A    between atoms: _571  and  _572
REMARK  233  A    between atoms: _571  and  _574
REMARK  234  A    between atoms: _574  and  _575
REMARK  235  A    between atoms: _580  and  _582
REMARK  236  A    between atoms: _582  and  _583
REMARK  237  A    between atoms: _582  and  _585
REMARK  238  A    between atoms: _585  and  _586
REMARK  239  A    between atoms: _588  and  _590
REMARK  240  A    between atoms: _590  and  _591
REMARK  241  A    between atoms: _590  and  _593
REMARK  242  A    between atoms: _593  and  _594
REMARK  243  A    between atoms: _594  and  _595
REMARK  244  A    between atoms: _600  and  _602
REMARK  245  A    between atoms: _602  and  _603
REMARK  246  A    between atoms: _602  and  _605
REMARK  247  A    between atoms: _605  and  _606
REMARK  248  A    between atoms: _611  and  _612
REMARK  249  A    between atoms: _614  and  _616
REMARK  250  A    between atoms: _616  and  _617
REMARK  251  A    between atoms: _616  and  _619
REMARK  252  A    between atoms: _619  and  _620
REMARK  253  A    between atoms: _620  and  _621
REMARK  254  A    between atoms: _621  and  _622
REMARK  255  A    between atoms: _631  and  _633
REMARK  256  A    between atoms: _633  and  _634
REMARK  257  A    between atoms: _633  and  _636
REMARK  258  A    between atoms: _636  and  _637
REMARK  259  A    between atoms: _640  and  _642
REMARK  260  A    between atoms: _642  and  _643
REMARK  261  A    between atoms: _642  and  _645
REMARK  262  A    between atoms: _647  and  _649
REMARK  263  A    between atoms: _649  and  _650
REMARK  264  A    between atoms: _649  and  _652
REMARK  265  A    between atoms: _652  and  _653
REMARK  266  A    between atoms: _653  and  _654
REMARK  267  A    between atoms: _654  and  _655
REMARK  268  A    between atoms: _655  and  _656
REMARK  269  A    between atoms: _660  and  _662
REMARK  270  A    between atoms: _662  and  _663
REMARK  271  A    between atoms: _662  and  _665
REMARK  272  A    between atoms: _665  and  _666
REMARK  273  A    between atoms: _669  and  _671
REMARK  274  A    between atoms: _671  and  _672
REMARK  275  A    between atoms: _671  and  _674
REMARK  276  A    between atoms: _674  and  _675
REMARK  277  A    between atoms: _678  and  _680
REMARK  278  A    between atoms: _680  and  _681
REMARK  279  A    between atoms: _680  and  _683
REMARK  280  A    between atoms: _686  and  _688
REMARK  281  A    between atoms: _688  and  _689
REMARK  282  A    between atoms: _688  and  _691
REMARK  283  A    between atoms: _691  and  _692
REMARK  284  A    between atoms: _695  and  _697
REMARK  285  A    between atoms: _697  and  _698
REMARK  286  A    between atoms: _697  and  _700
REMARK  287  A    between atoms: _700  and  _701
REMARK                            x       y       z     vdW  Elec       q    Type
REMARK                         _______ _______ _______ _____ _____    ______ ____
ROOT
ATOM      1  O   HOH     1      -1.747  22.153  34.720  0.00  0.00    +0.000 OA
ENDROOT
TORSDOF 0
REMARK  Name = ../refined-set-2016/1ie9/1ie9_pocket.pdb
REMARK  287 active torsions:
REMARK  status: ('A' for Active; 'I' for Inactive)
REMARK    1  A    between atoms: _1  and  _3
REMARK    2  A    between atoms: _3  and  _4
REMARK    3  A    between atoms: _3  and  _6
REMARK    4  A    between atoms: _6  and  _7
REMARK    5  A    between atoms: _10  and  _12
REMARK    6  A    between atoms: _12  and  _13
REMARK    7  A    between atoms: _12  and  _15
REMARK    8  A    between atoms: _15  and  _16
REMARK    9  A    between atoms: _21  and  _22
REMARK   10  A    between atoms: _24  and  _26
REMARK   11  A    between atoms: _26  and  _27
REMARK   12  A    between atoms: _26  and  _29
REMARK   13  A    between atoms: _29  and  _30
REMARK   14  A    between atoms: _34  and  _35
REMARK   15  A    between atoms: _40  and  _42
REMARK   16  A    between atoms: _42  and  _43
REMARK   17  A    between atoms: _42  and  _45
REMARK   18  A    between atoms: _45  and  _46
REMARK   19  A    between atoms: _51  and  _52
REMARK   20  A    between atoms: _54  and  _56
REMARK   21  A    between atoms: _56  and  _57
REMARK   22  A    between atoms: _56  and  _59
REMARK   23  A    between atoms: _59  and  _60
REMARK   24  A    between atoms: _66  and  _68
REMARK   25  A    between atoms: _68  and  _69
REMARK   26  A    between atoms: _68  and  _71
REMARK   27  A    between atoms: _71  and  _72
REMARK   28  A    between atoms: _78  and  _80
REMARK   29  A    between atoms: _80  and  _81
REMARK   30  A    between atoms: _80  and  _83
REMARK   31  A    between atoms: _83  and  _84
REMARK   32  A    between atoms: _84  and  _85
REMARK   33  A    between atoms: _85  and  _86
REMARK   34  A    between atoms: _95  and  _97
REMARK   35  A    between atoms: _97  and  _98
REMARK   36  A    between atoms: _97  and  _100
REMARK   37  A    between atoms: _100  and  _101
REMARK   38  A    between atoms: _104  and  _106
REMARK   39  A    between atoms: _106  and  _107
REMARK   40  A    between atoms: _106  and  _109
REMARK   41  A    between atoms: _109  and  _110
REMARK   42  A    between atoms: _110  and  _111
REMARK   43  A    between atoms: _113  and  _115
REMARK   44  A    between atoms: _115  and  _116
REMARK   45  A    between atoms: _115  and  _118
REMARK   46  A    between atoms: _118  and  _119
REMARK   47  A    between atoms: _123  and  _124
REMARK   48  A    between atoms: _129  and  _131
REMARK   49  A    between atoms: _131  and  _132
REMARK   50  A    between atoms: _131  and  _134
REMARK   51  A    between atoms: _134  and  _135
REMARK   52  A    between atoms: _140  and  _142
REMARK   53  A    between atoms: _142  and  _143
REMARK   54  A    between atoms: _142  and  _145
REMARK   55  A    between atoms: _145  and  _146
REMARK   56  A    between atoms: _149  and  _151
REMARK   57  A    between atoms: _151  and  _152
REMARK   58  A    between atoms: _155  and  _157
REMARK   59  A    between atoms: _157  and  _158
REMARK   60  A    between atoms: _157  and  _160
REMARK   61  A    between atoms: _160  and  _161
REMARK   62  A    between atoms: _164  and  _166
REMARK   63  A    between atoms: _166  and  _167
REMARK   64  A    between atoms: _166  and  _169
REMARK   65  A    between atoms: _169  and  _170
REMARK   66  A    between atoms: _173  and  _175
REMARK   67  A    between atoms: _175  and  _176
REMARK   68  A    between atoms: _175  and  _178
REMARK   69  A    between atoms: _181  and  _183
REMARK   70  A    between atoms: _183  and  _184
REMARK   71  A    between atoms: _183  and  _186
REMARK   72  A    between atoms: _186  and  _187
REMARK   73  A    between atoms: _189  and  _191
REMARK   74  A    between atoms: _191  and  _192
REMARK   75  A    between atoms: _191  and  _194
REMARK   76  A    between atoms: _194  and  _195
REMARK   77  A    between atoms: _200  and  _201
REMARK   78  A    between atoms: _203  and  _205
REMARK   79  A    between atoms: _205  and  _206
REMARK   80  A    between atoms: _205  and  _208
REMARK   81  A    between atoms: _208  and  _209
REMARK   82  A    between atoms: _211  and  _213
REMARK   83  A    between atoms: _213  and  _214
REMARK   84  A    between atoms: _213  and  _216
REMARK   85  A    between atoms: _216  and  _217
REMARK   86  A    between atoms: _220  and  _222
REMARK   87  A    between atoms: _222  and  _223
REMARK   88  A    between atoms: _222  and  _225
REMARK   89  A    between atoms: _225  and  _226
REMARK   90  A    between atoms: _226  and  _227
REMARK   91  A    between atoms: _227  and  _228
REMARK   92  A    between atoms: _228  and  _229
REMARK   93  A    between atoms: _233  and  _235
REMARK   94  A    between atoms: _235  and  _236
REMARK   95  A    between atoms: _235  and  _238
REMARK   96  A    between atoms: _241  and  _243
REMARK   97  A    between atoms: _243  and  _244
REMARK   98  A    between atoms: _247  and  _249
REMARK   99  A    between atoms: _249  and  _250
REMARK  100  A    between atoms: _249  and  _252
REMARK  101  A    between atoms: _252  and  _253
REMARK  102  A    between atoms: _256  and  _258
REMARK  103  A    between atoms: _258  and  _259
REMARK  104  A    between atoms: _258  and  _261
REMARK  105  A    between atoms: _261  and  _262
REMARK  106  A    between atoms: _262  and  _263
REMARK  107  A    between atoms: _266  and  _268
REMARK  108  A    between atoms: _268  and  _269
REMARK  109  A    between atoms: _268  and  _271
REMARK  110  A    between atoms: _274  and  _276
REMARK  111  A    between atoms: _276  and  _277
REMARK  112  A    between atoms: _276  and  _279
REMARK  113  A    between atoms: _279  and  _280
REMARK  114  A    between atoms: _283  and  _285
REMARK  115  A    between atoms: _285  and  _286
REMARK  116  A    between atoms: _285  and  _288
REMARK  117  A    between atoms: _288  and  _289
REMARK  118  A    between atoms: _289  and  _290
REMARK  119  A    between atoms: _292  and  _294
REMARK  120  A    between atoms: _294  and  _295
REMARK  121  A    between atoms: _294  and  _297
REMARK  122  A    between atoms: _297  and  _298
REMARK  123  A    between atoms: _301  and  _303
REMARK  124  A    between atoms: _303  and  _304
REMARK  125  A    between atoms: _303  and  _306
REMARK  126  A    between atoms: _306  and  _307
REMARK  127  A    between atoms: _307  and  _308
REMARK  128  A    between atoms: _308  and  _309
REMARK  129  A    between atoms: _318  and  _320
REMARK  130  A    between atoms: _320  and  _321
REMARK  131  A    between atoms: _320  and  _323
REMARK  132  A    between atoms: _323  and  _324
REMARK  133  A    between atoms: _326  and  _328
REMARK  134  A    between atoms: _328  and  _329
REMARK  135  A    between atoms: _328  and  _331
REMARK  136  A    between atoms: _331  and  _332
REMARK  137  A    between atoms: _337  and  _339
REMARK  138  A    between atoms: _339  and  _340
REMARK  139  A    between atoms: _339  and  _342
REMARK  140  A    between atoms: _342  and  _343
REMARK  141  A    between atoms: _343  and  _344
REMARK  142  A    between atoms: _347  and  _349
REMARK  143  A    between atoms: _349  and  _350
REMARK  144  A    between atoms: _349  and  _352
REMARK  145  A    between atoms: _352  and  _353
REMARK  146  A    between atoms: _355  and  _357
REMARK  147  A    between atoms: _357  and  _358
REMARK  148  A    between atoms: _357  and  _360
REMARK  149  A    between atoms: _360  and  _361
REMARK  150  A    between atoms: _367  and  _369
REMARK  151  A    between atoms: _369  and  _370
REMARK  152  A    between atoms: _369  and  _372
REMARK  153  A    between atoms: _372  and  _373
REMARK  154  A    between atoms: _375  and  _377
REMARK  155  A    between atoms: _377  and  _378
REMARK  156  A    between atoms: _377  and  _380
REMARK  157  A    between atoms: _380  and  _381
REMARK  158  A    between atoms: _391  and  _393
REMARK  159  A    between atoms: _393  and  _394
REMARK  160  A    between atoms: _393  and  _396
REMARK  161  A    between atoms: _396  and  _397
REMARK  162  A    between atoms: _400  and  _402
REMARK  163  A    between atoms: _402  and  _403
REMARK  164  A    between atoms: _402  and  _405
REMARK  165  A    between atoms: _407  and  _409
REMARK  166  A    between atoms: _409  and  _410
REMARK  167  A    between atoms: _409  and  _412
REMARK  168  A    between atoms: _412  and  _413
REMARK  169  A    between atoms: _418  and  _419
REMARK  170  A    between atoms: _421  and  _423
REMARK  171  A    between atoms: _423  and  _424
REMARK  172  A    between atoms: _423  and  _426
REMARK  173  A    between atoms: _426  and  _427
REMARK  174  A    between atoms: _427  and  _428
REMARK  175  A    between atoms: _428  and  _429
REMARK  176  A    between atoms: _429  and  _430
REMARK  177  A    between atoms: _434  and  _436
REMARK  178  A    between atoms: _436  and  _437
REMARK  179  A    between atoms: _436  and  _439
REMARK  180  A    between atoms: _439  and  _440
REMARK  181  A    between atoms: _445  and  _446
REMARK  182  A    between atoms: _448  and  _450
REMARK  183  A    between atoms: _450  and  _451
REMARK  184  A    between atoms: _450  and  _453
REMARK  185  A    between atoms: _453  and  _454
REMARK  186  A    between atoms: _454  and  _455
REMARK  187  A    between atoms: _455  and  _456
REMARK  188  A    between atoms: _465  and  _467
REMARK  189  A    between atoms: _467  and  _468
REMARK  190  A    between atoms: _467  and  _470
REMARK  191  A    between atoms: _473  and  _475
REMARK  192  A    between atoms: _475  and  _476
REMARK  193  A    between atoms: _475  and  _478
REMARK  194  A    between atoms: _478  and  _479
REMARK  195  A    between atoms: _482  and  _484
REMARK  196  A    between atoms: _484  and  _485
REMARK  197  A    between atoms: _484  and  _487
REMARK  198  A    between atoms: _490  and  _492
REMARK  199  A    between atoms: _492  and  _493
REMARK  200  A    between atoms: _492  and  _495
REMARK  201  A    between atoms: _495  and  _496
REMARK  202  A    between atoms: _499  and  _501
REMARK  203  A    between atoms: _501  and  _502
REMARK  204  A    between atoms: _505  and  _507
REMARK  205  A    between atoms: _507  and  _508
REMARK  206  A    between atoms: _510  and  _512
REMARK  207  A    between atoms: _512  and  _513
REMARK  208  A    between atoms: _512  and  _515
REMARK  209  A    between atoms: _515  and  _516
REMARK  210  A    between atoms: _521  and  _523
REMARK  211  A    between atoms: _523  and  _524
REMARK  212  A    between atoms: _523  and  _526
REMARK  213  A    between atoms: _526  and  _527
REMARK  214  A    between atoms: _530  and  _532
REMARK  215  A    between atoms: _532  and  _533
REMARK  216  A    between atoms: _532  and  _535
REMARK  217  A    between atoms: _535  and  _536
REMARK  218  A    between atoms: _539  and  _541
REMARK  219  A    between atoms: _541  and  _542
REMARK  220  A    between atoms: _541  and  _544
REMARK  221  A    between atoms: _544  and  _545
REMARK  222  A    between atoms: _548  and  _550
REMARK  223  A    between atoms: _550  and  _551
REMARK  224  A    between atoms: _550  and  _553
REMARK  225  A    between atoms: _553  and  _554
REMARK  226  A    between atoms: _554  and  _555
REMARK  227  A    between atoms: _560  and  _562
REMARK  228  A    between atoms: _562  and  _563
REMARK  229  A    between atoms: _562  and  _565
REMARK  230  A    between atoms: _565  and  _566
REMARK  231  A    between atoms: _569  and  _571
REMARK  232  A    between atoms: _571  and  _572
REMARK  233  A    between atoms: _571  and  _574
REMARK  234  A    between atoms: _574  and  _575
REMARK  235  A    between atoms: _580  and  _582
REMARK  236  A    between atoms: _582  and  _583
REMARK  237  A    between atoms: _582  and  _585
REMARK  238  A    between atoms: _585  and  _586
REMARK  239  A    between atoms: _588  and  _590
REMARK  240  A    between atoms: _590  and  _591
REMARK  241  A    between atoms: _590  and  _593
REMARK  242  A    between atoms: _593  and  _594
REMARK  243  A    between atoms: _594  and  _595
REMARK  244  A    between atoms: _600  and  _602
REMARK  245  A    between atoms: _602  and  _603
REMARK  246  A    between atoms: _602  and  _605
REMARK  247  A    between atoms: _605  and  _606
REMARK  248  A    between atoms: _611  and  _612
REMARK  249  A    between atoms: _614  and  _616
REMARK  250  A    between atoms: _616  and  _617
REMARK  251  A    between atoms: _616  and  _619
REMARK  252  A    between atoms: _619  and  _620
REMARK  253  A    between atoms: _620  and  _621
REMARK  254  A    between atoms: _621  and  _622
REMARK  255  A    between atoms: _631  and  _633
REMARK  256  A    between atoms: _633  and  _634
REMARK  257  A    between atoms: _633  and  _636
REMARK  258  A    between atoms: _636  and  _637
REMARK  259  A    between atoms: _640  and  _642
REMARK  260  A    between atoms: _642  and  _643
REMARK  261  A    between atoms: _642  and  _645
REMARK  262  A    between atoms: _647  and  _649
REMARK  263  A    between atoms: _649  and  _650
REMARK  264  A    between atoms: _649  and  _652
REMARK  265  A    between atoms: _652  and  _653
REMARK  266  A    between atoms: _653  and  _654
REMARK  267  A    between atoms: _654  and  _655
REMARK  268  A    between atoms: _655  and  _656
REMARK  269  A    between atoms: _660  and  _662
REMARK  270  A    between atoms: _662  and  _663
REMARK  271  A    between atoms: _662  and  _665
REMARK  272  A    between atoms: _665  and  _666
REMARK  273  A    between atoms: _669  and  _671
REMARK  274  A    between atoms: _671  and  _672
REMARK  275  A    between atoms: _671  and  _674
REMARK  276  A    between atoms: _674  and  _675
REMARK  277  A    between atoms: _678  and  _680
REMARK  278  A    between atoms: _680  and  _681
REMARK  279  A    between atoms: _680  and  _683
REMARK  280  A    between atoms: _686  and  _688
REMARK  281  A    between atoms: _688  and  _689
REMARK  282  A    between atoms: _688  and  _691
REMARK  283  A    between atoms: _691  and  _692
REMARK  284  A    between atoms: _695  and  _697
REMARK  285  A    between atoms: _697  and  _698
REMARK  286  A    between atoms: _697  and  _700
REMARK  287  A    between atoms: _700  and  _701
REMARK                            x       y       z     vdW  Elec       q    Type
REMARK                         _______ _______ _______ _____ _____    ______ ____
ROOT
ATOM      1  O   HOH     1      23.441  16.007  31.096  0.00  0.00    +0.000 OA
ENDROOT
TORSDOF 0
REMARK  Name = ../refined-set-2016/1ie9/1ie9_pocket.pdb
REMARK  287 active torsions:
REMARK  status: ('A' for Active; 'I' for Inactive)
REMARK    1  A    between atoms: _1  and  _3
REMARK    2  A    between atoms: _3  and  _4
REMARK    3  A    between atoms: _3  and  _6
REMARK    4  A    between atoms: _6  and  _7
REMARK    5  A    between atoms: _10  and  _12
REMARK    6  A    between atoms: _12  and  _13
REMARK    7  A    between atoms: _12  and  _15
REMARK    8  A    between atoms: _15  and  _16
REMARK    9  A    between atoms: _21  and  _22
REMARK   10  A    between atoms: _24  and  _26
REMARK   11  A    between atoms: _26  and  _27
REMARK   12  A    between atoms: _26  and  _29
REMARK   13  A    between atoms: _29  and  _30
REMARK   14  A    between atoms: _34  and  _35
REMARK   15  A    between atoms: _40  and  _42
REMARK   16  A    between atoms: _42  and  _43
REMARK   17  A    between atoms: _42  and  _45
REMARK   18  A    between atoms: _45  and  _46
REMARK   19  A    between atoms: _51  and  _52
REMARK   20  A    between atoms: _54  and  _56
REMARK   21  A    between atoms: _56  and  _57
REMARK   22  A    between atoms: _56  and  _59
REMARK   23  A    between atoms: _59  and  _60
REMARK   24  A    between atoms: _66  and  _68
REMARK   25  A    between atoms: _68  and  _69
REMARK   26  A    between atoms: _68  and  _71
REMARK   27  A    between atoms: _71  and  _72
REMARK   28  A    between atoms: _78  and  _80
REMARK   29  A    between atoms: _80  and  _81
REMARK   30  A    between atoms: _80  and  _83
REMARK   31  A    between atoms: _83  and  _84
REMARK   32  A    between atoms: _84  and  _85
REMARK   33  A    between atoms: _85  and  _86
REMARK   34  A    between atoms: _95  and  _97
REMARK   35  A    between atoms: _97  and  _98
REMARK   36  A    between atoms: _97  and  _100
REMARK   37  A    between atoms: _100  and  _101
REMARK   38  A    between atoms: _104  and  _106
REMARK   39  A    between atoms: _106  and  _107
REMARK   40  A    between atoms: _106  and  _109
REMARK   41  A    between atoms: _109  and  _110
REMARK   42  A    between atoms: _110  and  _111
REMARK   43  A    between atoms: _113  and  _115
REMARK   44  A    between atoms: _115  and  _116
REMARK   45  A    between atoms: _115  and  _118
REMARK   46  A    between atoms: _118  and  _119
REMARK   47  A    between atoms: _123  and  _124
REMARK   48  A    between atoms: _129  and  _131
REMARK   49  A    between atoms: _131  and  _132
REMARK   50  A    between atoms: _131  and  _134
REMARK   51  A    between atoms: _134  and  _135
REMARK   52  A    between atoms: _140  and  _142
REMARK   53  A    between atoms: _142  and  _143
REMARK   54  A    between atoms: _142  and  _145
REMARK   55  A    between atoms: _145  and  _146
REMARK   56  A    between atoms: _149  and  _151
REMARK   57  A    between atoms: _151  and  _152
REMARK   58  A    between atoms: _155  and  _157
REMARK   59  A    between atoms: _157  and  _158
REMARK   60  A    between atoms: _157  and  _160
REMARK   61  A    between atoms: _160  and  _161
REMARK   62  A    between atoms: _164  and  _166
REMARK   63  A    between atoms: _166  and  _167
REMARK   64  A    between atoms: _166  and  _169
REMARK   65  A    between atoms: _169  and  _170
REMARK   66  A    between atoms: _173  and  _175
REMARK   67  A    between atoms: _175  and  _176
REMARK   68  A    between atoms: _175  and  _178
REMARK   69  A    between atoms: _181  and  _183
REMARK   70  A    between atoms: _183  and  _184
REMARK   71  A    between atoms: _183  and  _186
REMARK   72  A    between atoms: _186  and  _187
REMARK   73  A    between atoms: _189  and  _191
REMARK   74  A    between atoms: _191  and  _192
REMARK   75  A    between atoms: _191  and  _194
REMARK   76  A    between atoms: _194  and  _195
REMARK   77  A    between atoms: _200  and  _201
REMARK   78  A    between atoms: _203  and  _205
REMARK   79  A    between atoms: _205  and  _206
REMARK   80  A    between atoms: _205  and  _208
REMARK   81  A    between atoms: _208  and  _209
REMARK   82  A    between atoms: _211  and  _213
REMARK   83  A    between atoms: _213  and  _214
REMARK   84  A    between atoms: _213  and  _216
REMARK   85  A    between atoms: _216  and  _217
REMARK   86  A    between atoms: _220  and  _222
REMARK   87  A    between atoms: _222  and  _223
REMARK   88  A    between atoms: _222  and  _225
REMARK   89  A    between atoms: _225  and  _226
REMARK   90  A    between atoms: _226  and  _227
REMARK   91  A    between atoms: _227  and  _228
REMARK   92  A    between atoms: _228  and  _229
REMARK   93  A    between atoms: _233  and  _235
REMARK   94  A    between atoms: _235  and  _236
REMARK   95  A    between atoms: _235  and  _238
REMARK   96  A    between atoms: _241  and  _243
REMARK   97  A    between atoms: _243  and  _244
REMARK   98  A    between atoms: _247  and  _249
REMARK   99  A    between atoms: _249  and  _250
REMARK  100  A    between atoms: _249  and  _252
REMARK  101  A    between atoms: _252  and  _253
REMARK  102  A    between atoms: _256  and  _258
REMARK  103  A    between atoms: _258  and  _259
REMARK  104  A    between atoms: _258  and  _261
REMARK  105  A    between atoms: _261  and  _262
REMARK  106  A    between atoms: _262  and  _263
REMARK  107  A    between atoms: _266  and  _268
REMARK  108  A    between atoms: _268  and  _269
REMARK  109  A    between atoms: _268  and  _271
REMARK  110  A    between atoms: _274  and  _276
REMARK  111  A    between atoms: _276  and  _277
REMARK  112  A    between atoms: _276  and  _279
REMARK  113  A    between atoms: _279  and  _280
REMARK  114  A    between atoms: _283  and  _285
REMARK  115  A    between atoms: _285  and  _286
REMARK  116  A    between atoms: _285  and  _288
REMARK  117  A    between atoms: _288  and  _289
REMARK  118  A    between atoms: _289  and  _290
REMARK  119  A    between atoms: _292  and  _294
REMARK  120  A    between atoms: _294  and  _295
REMARK  121  A    between atoms: _294  and  _297
REMARK  122  A    between atoms: _297  and  _298
REMARK  123  A    between atoms: _301  and  _303
REMARK  124  A    between atoms: _303  and  _304
REMARK  125  A    between atoms: _303  and  _306
REMARK  126  A    between atoms: _306  and  _307
REMARK  127  A    between atoms: _307  and  _308
REMARK  128  A    between atoms: _308  and  _309
REMARK  129  A    between atoms: _318  and  _320
REMARK  130  A    between atoms: _320  and  _321
REMARK  131  A    between atoms: _320  and  _323
REMARK  132  A    between atoms: _323  and  _324
REMARK  133  A    between atoms: _326  and  _328
REMARK  134  A    between atoms: _328  and  _329
REMARK  135  A    between atoms: _328  and  _331
REMARK  136  A    between atoms: _331  and  _332
REMARK  137  A    between atoms: _337  and  _339
REMARK  138  A    between atoms: _339  and  _340
REMARK  139  A    between atoms: _339  and  _342
REMARK  140  A    between atoms: _342  and  _343
REMARK  141  A    between atoms: _343  and  _344
REMARK  142  A    between atoms: _347  and  _349
REMARK  143  A    between atoms: _349  and  _350
REMARK  144  A    between atoms: _349  and  _352
REMARK  145  A    between atoms: _352  and  _353
REMARK  146  A    between atoms: _355  and  _357
REMARK  147  A    between atoms: _357  and  _358
REMARK  148  A    between atoms: _357  and  _360
REMARK  149  A    between atoms: _360  and  _361
REMARK  150  A    between atoms: _367  and  _369
REMARK  151  A    between atoms: _369  and  _370
REMARK  152  A    between atoms: _369  and  _372
REMARK  153  A    between atoms: _372  and  _373
REMARK  154  A    between atoms: _375  and  _377
REMARK  155  A    between atoms: _377  and  _378
REMARK  156  A    between atoms: _377  and  _380
REMARK  157  A    between atoms: _380  and  _381
REMARK  158  A    between atoms: _391  and  _393
REMARK  159  A    between atoms: _393  and  _394
REMARK  160  A    between atoms: _393  and  _396
REMARK  161  A    between atoms: _396  and  _397
REMARK  162  A    between atoms: _400  and  _402
REMARK  163  A    between atoms: _402  and  _403
REMARK  164  A    between atoms: _402  and  _405
REMARK  165  A    between atoms: _407  and  _409
REMARK  166  A    between atoms: _409  and  _410
REMARK  167  A    between atoms: _409  and  _412
REMARK  168  A    between atoms: _412  and  _413
REMARK  169  A    between atoms: _418  and  _419
REMARK  170  A    between atoms: _421  and  _423
REMARK  171  A    between atoms: _423  and  _424
REMARK  172  A    between atoms: _423  and  _426
REMARK  173  A    between atoms: _426  and  _427
REMARK  174  A    between atoms: _427  and  _428
REMARK  175  A    between atoms: _428  and  _429
REMARK  176  A    between atoms: _429  and  _430
REMARK  177  A    between atoms: _434  and  _436
REMARK  178  A    between atoms: _436  and  _437
REMARK  179  A    between atoms: _436  and  _439
REMARK  180  A    between atoms: _439  and  _440
REMARK  181  A    between atoms: _445  and  _446
REMARK  182  A    between atoms: _448  and  _450
REMARK  183  A    between atoms: _450  and  _451
REMARK  184  A    between atoms: _450  and  _453
REMARK  185  A    between atoms: _453  and  _454
REMARK  186  A    between atoms: _454  and  _455
REMARK  187  A    between atoms: _455  and  _456
REMARK  188  A    between atoms: _465  and  _467
REMARK  189  A    between atoms: _467  and  _468
REMARK  190  A    between atoms: _467  and  _470
REMARK  191  A    between atoms: _473  and  _475
REMARK  192  A    between atoms: _475  and  _476
REMARK  193  A    between atoms: _475  and  _478
REMARK  194  A    between atoms: _478  and  _479
REMARK  195  A    between atoms: _482  and  _484
REMARK  196  A    between atoms: _484  and  _485
REMARK  197  A    between atoms: _484  and  _487
REMARK  198  A    between atoms: _490  and  _492
REMARK  199  A    between atoms: _492  and  _493
REMARK  200  A    between atoms: _492  and  _495
REMARK  201  A    between atoms: _495  and  _496
REMARK  202  A    between atoms: _499  and  _501
REMARK  203  A    between atoms: _501  and  _502
REMARK  204  A    between atoms: _505  and  _507
REMARK  205  A    between atoms: _507  and  _508
REMARK  206  A    between atoms: _510  and  _512
REMARK  207  A    between atoms: _512  and  _513
REMARK  208  A    between atoms: _512  and  _515
REMARK  209  A    between atoms: _515  and  _516
REMARK  210  A    between atoms: _521  and  _523
REMARK  211  A    between atoms: _523  and  _524
REMARK  212  A    between atoms: _523  and  _526
REMARK  213  A    between atoms: _526  and  _527
REMARK  214  A    between atoms: _530  and  _532
REMARK  215  A    between atoms: _532  and  _533
REMARK  216  A    between atoms: _532  and  _535
REMARK  217  A    between atoms: _535  and  _536
REMARK  218  A    between atoms: _539  and  _541
REMARK  219  A    between atoms: _541  and  _542
REMARK  220  A    between atoms: _541  and  _544
REMARK  221  A    between atoms: _544  and  _545
REMARK  222  A    between atoms: _548  and  _550
REMARK  223  A    between atoms: _550  and  _551
REMARK  224  A    between atoms: _550  and  _553
REMARK  225  A    between atoms: _553  and  _554
REMARK  226  A    between atoms: _554  and  _555
REMARK  227  A    between atoms: _560  and  _562
REMARK  228  A    between atoms: _562  and  _563
REMARK  229  A    between atoms: _562  and  _565
REMARK  230  A    between atoms: _565  and  _566
REMARK  231  A    between atoms: _569  and  _571
REMARK  232  A    between atoms: _571  and  _572
REMARK  233  A    between atoms: _571  and  _574
REMARK  234  A    between atoms: _574  and  _575
REMARK  235  A    between atoms: _580  and  _582
REMARK  236  A    between atoms: _582  and  _583
REMARK  237  A    between atoms: _582  and  _585
REMARK  238  A    between atoms: _585  and  _586
REMARK  239  A    between atoms: _588  and  _590
REMARK  240  A    between atoms: _590  and  _591
REMARK  241  A    between atoms: _590  and  _593
REMARK  242  A    between atoms: _593  and  _594
REMARK  243  A    between atoms: _594  and  _595
REMARK  244  A    between atoms: _600  and  _602
REMARK  245  A    between atoms: _602  and  _603
REMARK  246  A    between atoms: _602  and  _605
REMARK  247  A    between atoms: _605  and  _606
REMARK  248  A    between atoms: _611  and  _612
REMARK  249  A    between atoms: _614  and  _616
REMARK  250  A    between atoms: _616  and  _617
REMARK  251  A    between atoms: _616  and  _619
REMARK  252  A    between atoms: _619  and  _620
REMARK  253  A    between atoms: _620  and  _621
REMARK  254  A    between atoms: _621  and  _622
REMARK  255  A    between atoms: _631  and  _633
REMARK  256  A    between atoms: _633  and  _634
REMARK  257  A    between atoms: _633  and  _636
REMARK  258  A    between atoms: _636  and  _637
REMARK  259  A    between atoms: _640  and  _642
REMARK  260  A    between atoms: _642  and  _643
REMARK  261  A    between atoms: _642  and  _645
REMARK  262  A    between atoms: _647  and  _649
REMARK  263  A    between atoms: _649  and  _650
REMARK  264  A    between atoms: _649  and  _652
REMARK  265  A    between atoms: _652  and  _653
REMARK  266  A    between atoms: _653  and  _654
REMARK  267  A    between atoms: _654  and  _655
REMARK  268  A    between atoms: _655  and  _656
REMARK  269  A    between atoms: _660  and  _662
REMARK  270  A    between atoms: _662  and  _663
REMARK  271  A    between atoms: _662  and  _665
REMARK  272  A    between atoms: _665  and  _666
REMARK  273  A    between atoms: _669  and  _671
REMARK  274  A    between atoms: _671  and  _672
REMARK  275  A    between atoms: _671  and  _674
REMARK  276  A    between atoms: _674  and  _675
REMARK  277  A    between atoms: _678  and  _680
REMARK  278  A    between atoms: _680  and  _681
REMARK  279  A    between atoms: _680  and  _683
REMARK  280  A    between atoms: _686  and  _688
REMARK  281  A    between atoms: _688  and  _689
REMARK  282  A    between atoms: _688  and  _691
REMARK  283  A    between atoms: _691  and  _692
REMARK  284  A    between atoms: _695  and  _697
REMARK  285  A    between atoms: _697  and  _698
REMARK  286  A    between atoms: _697  and  _700
REMARK  287  A    between atoms: _700  and  _701
REMARK                            x       y       z     vdW  Elec       q    Type
REMARK                         _______ _______ _______ _____ _____    ______ ____
ROOT
ATOM      1  O   HOH     1      23.842  18.667  30.836  0.00  0.00    +0.000 OA
ENDROOT
TORSDOF 0
