REMARK  Name = ../refined-set-2016/1xh9/1xh9_pocket.pdb
REMARK  280 active torsions:
REMARK  status: ('A' for Active; 'I' for Inactive)
REMARK    1  A    between atoms: _1  and  _3
REMARK    2  A    between atoms: _3  and  _4
REMARK    3  A    between atoms: _3  and  _6
REMARK    4  A    between atoms: _6  and  _7
REMARK    5  A    between atoms: _10  and  _12
REMARK    6  A    between atoms: _12  and  _13
REMARK    7  A    between atoms: _12  and  _15
REMARK    8  A    between atoms: _15  and  _16
REMARK    9  A    between atoms: _19  and  _21
REMARK   10  A    between atoms: _21  and  _22
REMARK   11  A    between atoms: _24  and  _26
REMARK   12  A    between atoms: _26  and  _27
REMARK   13  A    between atoms: _26  and  _29
REMARK   14  A    between atoms: _29  and  _30
REMARK   15  A    between atoms: _33  and  _35
REMARK   16  A    between atoms: _35  and  _36
REMARK   17  A    between atoms: _38  and  _40
REMARK   18  A    between atoms: _40  and  _41
REMARK   19  A    between atoms: _40  and  _43
REMARK   20  A    between atoms: _43  and  _44
REMARK   21  A    between atoms: _46  and  _48
REMARK   22  A    between atoms: _48  and  _49
REMARK   23  A    between atoms: _48  and  _51
REMARK   24  A    between atoms: _51  and  _52
REMARK   25  A    between atoms: _58  and  _60
REMARK   26  A    between atoms: _60  and  _61
REMARK   27  A    between atoms: _63  and  _65
REMARK   28  A    between atoms: _65  and  _66
REMARK   29  A    between atoms: _65  and  _68
REMARK   30  A    between atoms: _68  and  _69
REMARK   31  A    between atoms: _69  and  _70
REMARK   32  A    between atoms: _70  and  _71
REMARK   33  A    between atoms: _80  and  _82
REMARK   34  A    between atoms: _82  and  _83
REMARK   35  A    between atoms: _82  and  _85
REMARK   36  A    between atoms: _88  and  _90
REMARK   37  A    between atoms: _90  and  _91
REMARK   38  A    between atoms: _90  and  _93
REMARK   39  A    between atoms: _93  and  _94
REMARK   40  A    between atoms: _94  and  _95
REMARK   41  A    between atoms: _97  and  _99
REMARK   42  A    between atoms: _99  and  _100
REMARK   43  A    between atoms: _99  and  _102
REMARK   44  A    between atoms: _102  and  _103
REMARK   45  A    between atoms: _106  and  _108
REMARK   46  A    between atoms: _108  and  _109
REMARK   47  A    between atoms: _108  and  _111
REMARK   48  A    between atoms: _111  and  _112
REMARK   49  A    between atoms: _117  and  _118
REMARK   50  A    between atoms: _120  and  _122
REMARK   51  A    between atoms: _122  and  _123
REMARK   52  A    between atoms: _126  and  _128
REMARK   53  A    between atoms: _128  and  _129
REMARK   54  A    between atoms: _128  and  _131
REMARK   55  A    between atoms: _131  and  _132
REMARK   56  A    between atoms: _132  and  _133
REMARK   57  A    between atoms: _135  and  _137
REMARK   58  A    between atoms: _137  and  _138
REMARK   59  A    between atoms: _137  and  _140
REMARK   60  A    between atoms: _140  and  _141
REMARK   61  A    between atoms: _141  and  _142
REMARK   62  A    between atoms: _142  and  _143
REMARK   63  A    between atoms: _143  and  _144
REMARK   64  A    between atoms: _148  and  _150
REMARK   65  A    between atoms: _150  and  _151
REMARK   66  A    between atoms: _150  and  _153
REMARK   67  A    between atoms: _153  and  _154
REMARK   68  A    between atoms: _157  and  _159
REMARK   69  A    between atoms: _159  and  _160
REMARK   70  A    between atoms: _159  and  _162
REMARK   71  A    between atoms: _162  and  _163
REMARK   72  A    between atoms: _166  and  _168
REMARK   73  A    between atoms: _168  and  _169
REMARK   74  A    between atoms: _168  and  _171
REMARK   75  A    between atoms: _171  and  _172
REMARK   76  A    between atoms: _175  and  _177
REMARK   77  A    between atoms: _177  and  _178
REMARK   78  A    between atoms: _177  and  _180
REMARK   79  A    between atoms: _180  and  _181
REMARK   80  A    between atoms: _181  and  _182
REMARK   81  A    between atoms: _182  and  _183
REMARK   82  A    between atoms: _183  and  _184
REMARK   83  A    between atoms: _188  and  _190
REMARK   84  A    between atoms: _190  and  _191
REMARK   85  A    between atoms: _190  and  _193
REMARK   86  A    between atoms: _196  and  _198
REMARK   87  A    between atoms: _198  and  _199
REMARK   88  A    between atoms: _198  and  _201
REMARK   89  A    between atoms: _201  and  _202
REMARK   90  A    between atoms: _205  and  _207
REMARK   91  A    between atoms: _207  and  _208
REMARK   92  A    between atoms: _207  and  _210
REMARK   93  A    between atoms: _210  and  _211
REMARK   94  A    between atoms: _211  and  _212
REMARK   95  A    between atoms: _212  and  _213
REMARK   96  A    between atoms: _213  and  _214
REMARK   97  A    between atoms: _218  and  _220
REMARK   98  A    between atoms: _220  and  _221
REMARK   99  A    between atoms: _220  and  _223
REMARK  100  A    between atoms: _223  and  _224
REMARK  101  A    between atoms: _224  and  _225
REMARK  102  A    between atoms: _228  and  _230
REMARK  103  A    between atoms: _230  and  _231
REMARK  104  A    between atoms: _230  and  _233
REMARK  105  A    between atoms: _233  and  _234
REMARK  106  A    between atoms: _237  and  _239
REMARK  107  A    between atoms: _239  and  _240
REMARK  108  A    between atoms: _239  and  _242
REMARK  109  A    between atoms: _242  and  _243
REMARK  110  A    between atoms: _243  and  _244
REMARK  111  A    between atoms: _247  and  _249
REMARK  112  A    between atoms: _249  and  _250
REMARK  113  A    between atoms: _249  and  _252
REMARK  114  A    between atoms: _252  and  _253
REMARK  115  A    between atoms: _258  and  _260
REMARK  116  A    between atoms: _260  and  _261
REMARK  117  A    between atoms: _260  and  _263
REMARK  118  A    between atoms: _263  and  _264
REMARK  119  A    between atoms: _267  and  _269
REMARK  120  A    between atoms: _269  and  _270
REMARK  121  A    between atoms: _269  and  _272
REMARK  122  A    between atoms: _272  and  _273
REMARK  123  A    between atoms: _276  and  _278
REMARK  124  A    between atoms: _278  and  _279
REMARK  125  A    between atoms: _278  and  _281
REMARK  126  A    between atoms: _281  and  _282
REMARK  127  A    between atoms: _287  and  _289
REMARK  128  A    between atoms: _289  and  _290
REMARK  129  A    between atoms: _289  and  _292
REMARK  130  A    between atoms: _292  and  _293
REMARK  131  A    between atoms: _293  and  _294
REMARK  132  A    between atoms: _297  and  _299
REMARK  133  A    between atoms: _299  and  _300
REMARK  134  A    between atoms: _299  and  _302
REMARK  135  A    between atoms: _302  and  _303
REMARK  136  A    between atoms: _303  and  _304
REMARK  137  A    between atoms: _304  and  _305
REMARK  138  A    between atoms: _305  and  _306
REMARK  139  A    between atoms: _310  and  _312
REMARK  140  A    between atoms: _312  and  _313
REMARK  141  A    between atoms: _312  and  _315
REMARK  142  A    between atoms: _315  and  _316
REMARK  143  A    between atoms: _319  and  _321
REMARK  144  A    between atoms: _321  and  _322
REMARK  145  A    between atoms: _321  and  _324
REMARK  146  A    between atoms: _327  and  _329
REMARK  147  A    between atoms: _329  and  _330
REMARK  148  A    between atoms: _329  and  _332
REMARK  149  A    between atoms: _332  and  _333
REMARK  150  A    between atoms: _333  and  _334
REMARK  151  A    between atoms: _334  and  _335
REMARK  152  A    between atoms: _335  and  _336
REMARK  153  A    between atoms: _340  and  _342
REMARK  154  A    between atoms: _342  and  _343
REMARK  155  A    between atoms: _342  and  _345
REMARK  156  A    between atoms: _345  and  _346
REMARK  157  A    between atoms: _349  and  _351
REMARK  158  A    between atoms: _351  and  _352
REMARK  159  A    between atoms: _351  and  _354
REMARK  160  A    between atoms: _354  and  _355
REMARK  161  A    between atoms: _355  and  _356
REMARK  162  A    between atoms: _358  and  _360
REMARK  163  A    between atoms: _360  and  _361
REMARK  164  A    between atoms: _360  and  _363
REMARK  165  A    between atoms: _363  and  _364
REMARK  166  A    between atoms: _364  and  _365
REMARK  167  A    between atoms: _367  and  _369
REMARK  168  A    between atoms: _369  and  _370
REMARK  169  A    between atoms: _369  and  _372
REMARK  170  A    between atoms: _372  and  _373
REMARK  171  A    between atoms: _373  and  _374
REMARK  172  A    between atoms: _377  and  _379
REMARK  173  A    between atoms: _379  and  _380
REMARK  174  A    between atoms: _379  and  _382
REMARK  175  A    between atoms: _382  and  _383
REMARK  176  A    between atoms: _388  and  _389
REMARK  177  A    between atoms: _391  and  _393
REMARK  178  A    between atoms: _393  and  _394
REMARK  179  A    between atoms: _398  and  _399
REMARK  180  A    between atoms: _404  and  _406
REMARK  181  A    between atoms: _406  and  _407
REMARK  182  A    between atoms: _409  and  _411
REMARK  183  A    between atoms: _411  and  _412
REMARK  184  A    between atoms: _414  and  _416
REMARK  185  A    between atoms: _416  and  _417
REMARK  186  A    between atoms: _416  and  _419
REMARK  187  A    between atoms: _419  and  _420
REMARK  188  A    between atoms: _420  and  _421
REMARK  189  A    between atoms: _424  and  _426
REMARK  190  A    between atoms: _426  and  _427
REMARK  191  A    between atoms: _426  and  _429
REMARK  192  A    between atoms: _429  and  _430
REMARK  193  A    between atoms: _430  and  _431
REMARK  194  A    between atoms: _433  and  _435
REMARK  195  A    between atoms: _435  and  _436
REMARK  196  A    between atoms: _435  and  _438
REMARK  197  A    between atoms: _438  and  _439
REMARK  198  A    between atoms: _445  and  _447
REMARK  199  A    between atoms: _447  and  _448
REMARK  200  A    between atoms: _447  and  _450
REMARK  201  A    between atoms: _450  and  _451
REMARK  202  A    between atoms: _456  and  _457
REMARK  203  A    between atoms: _459  and  _461
REMARK  204  A    between atoms: _461  and  _462
REMARK  205  A    between atoms: _461  and  _464
REMARK  206  A    between atoms: _464  and  _465
REMARK  207  A    between atoms: _468  and  _470
REMARK  208  A    between atoms: _470  and  _471
REMARK  209  A    between atoms: _470  and  _473
REMARK  210  A    between atoms: _473  and  _474
REMARK  211  A    between atoms: _474  and  _475
REMARK  212  A    between atoms: _475  and  _476
REMARK  213  A    between atoms: _476  and  _477
REMARK  214  A    between atoms: _482  and  _483
REMARK  215  A    between atoms: _488  and  _490
REMARK  216  A    between atoms: _490  and  _491
REMARK  217  A    between atoms: _490  and  _493
REMARK  218  A    between atoms: _493  and  _494
REMARK  219  A    between atoms: _494  and  _495
REMARK  220  A    between atoms: _498  and  _500
REMARK  221  A    between atoms: _500  and  _501
REMARK  222  A    between atoms: _500  and  _503
REMARK  223  A    between atoms: _503  and  _504
REMARK  224  A    between atoms: _509  and  _511
REMARK  225  A    between atoms: _511  and  _512
REMARK  226  A    between atoms: _511  and  _514
REMARK  227  A    between atoms: _514  and  _515
REMARK  228  A    between atoms: _518  and  _520
REMARK  229  A    between atoms: _520  and  _521
REMARK  230  A    between atoms: _520  and  _523
REMARK  231  A    between atoms: _523  and  _524
REMARK  232  A    between atoms: _524  and  _525
REMARK  233  A    between atoms: _527  and  _529
REMARK  234  A    between atoms: _529  and  _530
REMARK  235  A    between atoms: _529  and  _532
REMARK  236  A    between atoms: _532  and  _533
REMARK  237  A    between atoms: _536  and  _538
REMARK  238  A    between atoms: _538  and  _539
REMARK  239  A    between atoms: _538  and  _541
REMARK  240  A    between atoms: _541  and  _542
REMARK  241  A    between atoms: _542  and  _543
REMARK  242  A    between atoms: _543  and  _544
REMARK  243  A    between atoms: _544  and  _545
REMARK  244  A    between atoms: _549  and  _551
REMARK  245  A    between atoms: _551  and  _552
REMARK  246  A    between atoms: _551  and  _554
REMARK  247  A    between atoms: _557  and  _559
REMARK  248  A    between atoms: _559  and  _560
REMARK  249  A    between atoms: _559  and  _562
REMARK  250  A    between atoms: _562  and  _563
REMARK  251  A    between atoms: _566  and  _568
REMARK  252  A    between atoms: _568  and  _569
REMARK  253  A    between atoms: _568  and  _571
REMARK  254  A    between atoms: _571  and  _572
REMARK  255  A    between atoms: _575  and  _577
REMARK  256  A    between atoms: _577  and  _578
REMARK  257  A    between atoms: _577  and  _580
REMARK  258  A    between atoms: _580  and  _581
REMARK  259  A    between atoms: _587  and  _589
REMARK  260  A    between atoms: _589  and  _590
REMARK  261  A    between atoms: _592  and  _594
REMARK  262  A    between atoms: _594  and  _595
REMARK  263  A    between atoms: _594  and  _597
REMARK  264  A    between atoms: _597  and  _598
REMARK  265  A    between atoms: _601  and  _603
REMARK  266  A    between atoms: _603  and  _604
REMARK  267  A    between atoms: _607  and  _609
REMARK  268  A    between atoms: _609  and  _610
REMARK  269  A    between atoms: _609  and  _612
REMARK  270  A    between atoms: _614  and  _616
REMARK  271  A    between atoms: _616  and  _617
REMARK  272  A    between atoms: _619  and  _621
REMARK  273  A    between atoms: _621  and  _622
REMARK  274  A    between atoms: _621  and  _624
REMARK  275  A    between atoms: _624  and  _625
REMARK  276  A    between atoms: _631  and  _633
REMARK  277  A    between atoms: _633  and  _634
REMARK  278  A    between atoms: _633  and  _636
REMARK  279  A    between atoms: _636  and  _637
REMARK  280  A    between atoms: _642  and  _643
REMARK                            x       y       z     vdW  Elec       q    Type
REMARK                         _______ _______ _______ _____ _____    ______ ____
ROOT
ATOM      1  CA  PHE A   7      17.202  36.033  20.019  0.00  0.00    +0.153 C 
ENDROOT
BRANCH   1   2
ATOM      2  C   PHE A   7      17.969  36.789  18.955  0.00  0.00    +0.241 C 
ATOM      3  O   PHE A   7      19.086  36.409  18.603  0.00  0.00    -0.273 OA
ATOM      4  N   GLY A   8      17.389  37.869  18.435  0.00  0.00    -0.295 N 
ATOM      5  H   GLY A   8      16.447  38.162  18.765  0.00  0.00    +0.150 HD
BRANCH   4   6
ATOM      6  CA  GLY A   8      18.061  38.632  17.418  0.00  0.00    +0.176 C 
BRANCH   6   7
ATOM      7  C   GLY A   8      17.241  39.722  16.794  0.00  0.00    +0.243 C 
ATOM      8  O   GLY A   8      16.503  40.432  17.479  0.00  0.00    -0.273 OA
ATOM      9  N   ARG A   9      17.389  39.871  15.493  0.00  0.00    -0.297 N 
ATOM     10  H   ARG A   9      17.939  39.164  14.965  0.00  0.00    +0.150 HD
BRANCH   9  11
ATOM     11  CA  ARG A   9      16.808  40.992  14.772  0.00  0.00    +0.149 C 
BRANCH  11  12
ATOM     12  C   ARG A   9      16.692  40.674  13.288  0.00  0.00    +0.241 C 
ATOM     13  O   ARG A   9      17.315  39.729  12.803  0.00  0.00    -0.273 OA
ATOM     14  N   VAL A  10      15.910  41.492  12.576  0.00  0.00    -0.297 N 
ATOM     15  H   VAL A  10      15.358  42.211  13.087  0.00  0.00    +0.150 HD
BRANCH  14  16
ATOM     16  CA  VAL A  10      15.785  41.433  11.106  0.00  0.00    +0.149 C 
BRANCH  16  17
ATOM     17  C   VAL A  10      16.360  42.729  10.570  0.00  0.00    +0.241 C 
ATOM     18  O   VAL A  10      15.980  43.807  11.040  0.00  0.00    -0.273 OA
ATOM     19  N   MET A  11      17.293  42.618   9.622  0.00  0.00    -0.297 N 
ATOM     20  H   MET A  11      17.567  41.666   9.306  0.00  0.00    +0.150 HD
BRANCH  19  21
ATOM     21  CA  MET A  11      17.947  43.771   9.007  0.00  0.00    +0.149 C 
BRANCH  21  22
ATOM     22  C   MET A  11      17.685  43.829   7.514  0.00  0.00    +0.241 C 
ATOM     23  N   LEU A  12      17.500  45.043   7.008  0.00  0.00    -0.298 N 
ATOM     24  H   LEU A  12      17.266  45.826   7.652  0.00  0.00    +0.150 HD
ATOM     25  O   MET A  11      17.693  42.809   6.825  0.00  0.00    -0.273 OA
BRANCH  23  26
ATOM     26  CA  LEU A  12      17.613  45.314   5.586  0.00  0.00    +0.137 C 
BRANCH  26  27
ATOM     27  C   LEU A  12      19.053  45.046   5.181  0.00  0.00    +0.227 C 
ATOM     28  O   LEU A  12      19.973  45.515   5.847  0.00  0.00    -0.286 OA
ENDBRANCH  26  27
BRANCH  26  29
ATOM     29  CB  LEU A  12      17.291  46.782   5.292  0.00  0.00    +0.028 C 
BRANCH  29  30
ATOM     30  CG  LEU A  12      16.681  47.264   3.964  0.00  0.00    +0.002 C 
ATOM     31  CD2 LEU A  12      17.421  48.479   3.418  0.00  0.00    +0.000 C 
ATOM     32  CD1 LEU A  12      16.385  46.222   2.902  0.00  0.00    +0.000 C 
ENDBRANCH  29  30
ENDBRANCH  26  29
ENDBRANCH  23  26
ENDBRANCH  21  22
BRANCH  21  33
ATOM     33  CB  MET A  11      19.454  43.693   9.226  0.00  0.00    +0.041 C 
BRANCH  33  34
ATOM     34  CG  MET A  11      19.880  43.642  10.644  0.00  0.00    +0.060 C 
BRANCH  34  35
ATOM     35  SD  MET A  11      21.661  43.873  10.856  0.00  0.00    -0.139 S 
ATOM     36  CE  MET A  11      21.779  45.587  10.431  0.00  0.00    +0.069 C 
ENDBRANCH  34  35
ENDBRANCH  33  34
ENDBRANCH  21  33
ENDBRANCH  19  21
ENDBRANCH  16  17
BRANCH  16  37
ATOM     37  CB  VAL A  10      14.315  41.281  10.640  0.00  0.00    +0.027 C 
ATOM     38  CG2 VAL A  10      13.728  39.899  11.071  0.00  0.00    +0.002 C 
ATOM     39  CG1 VAL A  10      14.184  41.483   9.140  0.00  0.00    +0.002 C 
ENDBRANCH  16  37
ENDBRANCH  14  16
ENDBRANCH  11  12
BRANCH  11  40
ATOM     40  CB  ARG A   9      17.692  42.236  14.940  0.00  0.00    +0.033 C 
BRANCH  40  41
ATOM     41  CG  ARG A   9      19.114  42.048  14.381  0.00  0.00    +0.045 C 
BRANCH  41  42
ATOM     42  CD  ARG A   9      20.064  43.237  14.614  0.00  0.00    +0.174 C 
BRANCH  42  43
ATOM     43  NE  ARG A   9      20.286  43.439  16.032  0.00  0.00    -0.265 N 
ATOM     44  CZ  ARG A   9      20.118  44.595  16.683  0.00  0.00    +0.342 C 
ATOM     45  NH2 ARG A   9      20.324  44.633  17.987  0.00  0.00    -0.292 N 
ATOM     46 HH21 ARG A   9      20.198  45.524  18.508  0.00  0.00    +0.255 HD
ATOM     47 HH22 ARG A   9      20.613  43.772  18.493  0.00  0.00    +0.255 HD
ATOM     48  NH1 ARG A   9      19.769  45.704  16.041  0.00  0.00    -0.292 N 
ATOM     49 HH11 ARG A   9      19.644  46.592  16.567  0.00  0.00    +0.255 HD
ATOM     50 HH12 ARG A   9      19.621  45.684  15.012  0.00  0.00    +0.255 HD
ATOM     51  HE  ARG A   9      20.601  42.619  16.588  0.00  0.00    +0.259 HD
ENDBRANCH  42  43
ENDBRANCH  41  42
ENDBRANCH  40  41
ENDBRANCH  11  40
ENDBRANCH   9  11
ENDBRANCH   6   7
ENDBRANCH   4   6
ENDBRANCH   1   2
BRANCH   1  54
ATOM     52  C   SER A   6      15.556  37.155  21.426  0.00  0.00    +0.243 C 
ATOM     53  O   SER A   6      16.384  37.450  22.304  0.00  0.00    -0.273 OA
ATOM     54  N   PHE A   7      15.886  36.589  20.275  0.00  0.00    -0.297 N 
ATOM     55  H   PHE A   7      15.171  36.541  19.522  0.00  0.00    +0.150 HD
BRANCH  52  56
ATOM     56  CA  SER A   6      14.067  37.450  21.605  0.00  0.00    +0.178 C 
BRANCH  56  58
ATOM     57  C   GLY A   5      13.866  39.056  19.786  0.00  0.00    +0.243 C 
ATOM     58  N   SER A   6      13.426  37.965  20.394  0.00  0.00    -0.295 N 
ATOM     59  H   SER A   6      12.605  37.462  20.001  0.00  0.00    +0.150 HD
ATOM     60  O   GLY A   5      14.963  39.598  20.060  0.00  0.00    -0.273 OA
BRANCH  57  61
ATOM     61  CA  GLY A   5      12.967  39.591  18.690  0.00  0.00    +0.176 C 
BRANCH  61  63
ATOM     62  C   THR A   4      12.964  41.670  17.407  0.00  0.00    +0.243 C 
ATOM     63  N   GLY A   5      13.609  40.679  17.991  0.00  0.00    -0.295 N 
ATOM     64  H   GLY A   5      14.648  40.681  17.945  0.00  0.00    +0.150 HD
ATOM     65  O   THR A   4      11.716  41.744  17.310  0.00  0.00    -0.273 OA
BRANCH  62  66
ATOM     66  CA  THR A   4      13.876  42.750  16.830  0.00  0.00    +0.176 C 
BRANCH  66  68
ATOM     67  C   GLY A   3      13.630  43.909  14.676  0.00  0.00    +0.243 C 
ATOM     68  N   THR A   4      13.164  43.632  15.897  0.00  0.00    -0.295 N 
ATOM     69  H   THR A   4      12.264  44.057  16.198  0.00  0.00    +0.150 HD
ATOM     70  O   GLY A   3      14.748  43.566  14.295  0.00  0.00    -0.273 OA
BRANCH  67  71
ATOM     71  CA  GLY A   3      12.745  44.707  13.753  0.00  0.00    +0.176 C 
BRANCH  71  73
ATOM     72  C   LEU A   2      12.903  46.093  11.749  0.00  0.00    +0.241 C 
ATOM     73  N   GLY A   3      13.483  45.391  12.704  0.00  0.00    -0.295 N 
ATOM     74  H   GLY A   3      14.521  45.324  12.706  0.00  0.00    +0.150 HD
ATOM     75  O   LEU A   2      11.691  46.305  11.710  0.00  0.00    -0.273 OA
BRANCH  72  76
ATOM     76  CA  LEU A   2      13.827  46.642  10.650  0.00  0.00    +0.149 C 
BRANCH  76  79
ATOM     77  C   THR A   1      16.065  47.477  11.367  0.00  0.00    +0.241 C 
ATOM     78  O   THR A   1      15.715  48.648  11.534  0.00  0.00    -0.274 OA
ATOM     79  N   LEU A   2      15.245  46.497  10.963  0.00  0.00    -0.297 N 
ATOM     80  H   LEU A   2      15.656  45.547  10.864  0.00  0.00    +0.150 HD
BRANCH  77  81
ATOM     81  CA  THR A   1      17.512  47.040  11.598  0.00  0.00    +0.172 C 
BRANCH  81  82
ATOM     82  N   THR A   1      18.448  47.895  10.861  0.00  0.00    -0.236 NA
ATOM     83  H   THR A   1      19.008  48.596  11.387  0.00  0.00    +0.142 HD
ENDBRANCH  81  82
BRANCH  81  84
ATOM     84  CB  THR A   1      17.850  47.032  13.077  0.00  0.00    +0.135 C 
ATOM     85  CG2 THR A   1      16.891  46.156  13.877  0.00  0.00    +0.034 C 
BRANCH  84  86
ATOM     86  OG1 THR A   1      19.133  46.430  13.260  0.00  0.00    -0.383 OA
ATOM     87  HG1 THR A   1      19.814  46.951  12.765  0.00  0.00    +0.210 HD
ENDBRANCH  84  86
ENDBRANCH  81  84
ENDBRANCH  77  81
ENDBRANCH  76  79
BRANCH  76  88
ATOM     88  CB  LEU A   2      13.521  45.867   9.374  0.00  0.00    +0.029 C 
BRANCH  88  89
ATOM     89  CG  LEU A   2      14.285  46.266   8.109  0.00  0.00    +0.002 C 
ATOM     90  CD2 LEU A   2      13.915  47.689   7.698  0.00  0.00    +0.000 C 
ATOM     91  CD1 LEU A   2      14.000  45.284   7.011  0.00  0.00    +0.000 C 
ENDBRANCH  88  89
ENDBRANCH  76  88
ENDBRANCH  72  76
ENDBRANCH  71  73
ENDBRANCH  67  71
ENDBRANCH  66  68
BRANCH  66  92
ATOM     92  CB  THR A   4      14.504  43.536  18.002  0.00  0.00    +0.137 C 
ATOM     93  CG2 THR A   4      15.363  44.668  17.492  0.00  0.00    +0.034 C 
BRANCH  92  94
ATOM     94  OG1 THR A   4      13.463  44.143  18.784  0.00  0.00    -0.382 OA
ATOM     95  HG1 THR A   4      13.867  44.646  19.535  0.00  0.00    +0.210 HD
ENDBRANCH  92  94
ENDBRANCH  66  92
ENDBRANCH  62  66
ENDBRANCH  61  63
ENDBRANCH  57  61
ENDBRANCH  56  58
BRANCH  56  96
ATOM     96  CB  SER A   6      13.385  36.171  22.062  0.00  0.00    +0.166 C 
BRANCH  96  97
ATOM     97  OG  SER A   6      12.081  36.433  22.515  0.00  0.00    -0.380 OA
ATOM     98  H   SER A   6      11.658  35.587  22.807  0.00  0.00    +0.211 HD
ENDBRANCH  96  97
ENDBRANCH  56  96
ENDBRANCH  52  56
ENDBRANCH   1  54
BRANCH   1  99
ATOM     99  CB  PHE A   7      17.030  34.582  19.580  0.00  0.00    +0.055 C 
BRANCH  99 100
ATOM    100  CG  PHE A   7      16.156  33.783  20.486  0.00  0.00    -0.020 A 
ATOM    101  CD2 PHE A   7      16.390  33.786  21.856  0.00  0.00    -0.004 A 
ATOM    102  CE2 PHE A   7      15.595  33.053  22.706  0.00  0.00    -0.000 A 
ATOM    103  CZ  PHE A   7      14.569  32.298  22.204  0.00  0.00    -0.000 A 
ATOM    104  CE1 PHE A   7      14.324  32.275  20.841  0.00  0.00    -0.000 A 
ATOM    105  CD1 PHE A   7      15.107  33.019  19.986  0.00  0.00    -0.004 A 
ENDBRANCH  99 100
ENDBRANCH   1  99
TORSDOF 44
REMARK  Name = ../refined-set-2016/1xh9/1xh9_pocket.pdb
REMARK  280 active torsions:
REMARK  status: ('A' for Active; 'I' for Inactive)
REMARK    1  A    between atoms: _1  and  _3
REMARK    2  A    between atoms: _3  and  _4
REMARK    3  A    between atoms: _3  and  _6
REMARK    4  A    between atoms: _6  and  _7
REMARK    5  A    between atoms: _10  and  _12
REMARK    6  A    between atoms: _12  and  _13
REMARK    7  A    between atoms: _12  and  _15
REMARK    8  A    between atoms: _15  and  _16
REMARK    9  A    between atoms: _19  and  _21
REMARK   10  A    between atoms: _21  and  _22
REMARK   11  A    between atoms: _24  and  _26
REMARK   12  A    between atoms: _26  and  _27
REMARK   13  A    between atoms: _26  and  _29
REMARK   14  A    between atoms: _29  and  _30
REMARK   15  A    between atoms: _33  and  _35
REMARK   16  A    between atoms: _35  and  _36
REMARK   17  A    between atoms: _38  and  _40
REMARK   18  A    between atoms: _40  and  _41
REMARK   19  A    between atoms: _40  and  _43
REMARK   20  A    between atoms: _43  and  _44
REMARK   21  A    between atoms: _46  and  _48
REMARK   22  A    between atoms: _48  and  _49
REMARK   23  A    between atoms: _48  and  _51
REMARK   24  A    between atoms: _51  and  _52
REMARK   25  A    between atoms: _58  and  _60
REMARK   26  A    between atoms: _60  and  _61
REMARK   27  A    between atoms: _63  and  _65
REMARK   28  A    between atoms: _65  and  _66
REMARK   29  A    between atoms: _65  and  _68
REMARK   30  A    between atoms: _68  and  _69
REMARK   31  A    between atoms: _69  and  _70
REMARK   32  A    between atoms: _70  and  _71
REMARK   33  A    between atoms: _80  and  _82
REMARK   34  A    between atoms: _82  and  _83
REMARK   35  A    between atoms: _82  and  _85
REMARK   36  A    between atoms: _88  and  _90
REMARK   37  A    between atoms: _90  and  _91
REMARK   38  A    between atoms: _90  and  _93
REMARK   39  A    between atoms: _93  and  _94
REMARK   40  A    between atoms: _94  and  _95
REMARK   41  A    between atoms: _97  and  _99
REMARK   42  A    between atoms: _99  and  _100
REMARK   43  A    between atoms: _99  and  _102
REMARK   44  A    between atoms: _102  and  _103
REMARK   45  A    between atoms: _106  and  _108
REMARK   46  A    between atoms: _108  and  _109
REMARK   47  A    between atoms: _108  and  _111
REMARK   48  A    between atoms: _111  and  _112
REMARK   49  A    between atoms: _117  and  _118
REMARK   50  A    between atoms: _120  and  _122
REMARK   51  A    between atoms: _122  and  _123
REMARK   52  A    between atoms: _126  and  _128
REMARK   53  A    between atoms: _128  and  _129
REMARK   54  A    between atoms: _128  and  _131
REMARK   55  A    between atoms: _131  and  _132
REMARK   56  A    between atoms: _132  and  _133
REMARK   57  A    between atoms: _135  and  _137
REMARK   58  A    between atoms: _137  and  _138
REMARK   59  A    between atoms: _137  and  _140
REMARK   60  A    between atoms: _140  and  _141
REMARK   61  A    between atoms: _141  and  _142
REMARK   62  A    between atoms: _142  and  _143
REMARK   63  A    between atoms: _143  and  _144
REMARK   64  A    between atoms: _148  and  _150
REMARK   65  A    between atoms: _150  and  _151
REMARK   66  A    between atoms: _150  and  _153
REMARK   67  A    between atoms: _153  and  _154
REMARK   68  A    between atoms: _157  and  _159
REMARK   69  A    between atoms: _159  and  _160
REMARK   70  A    between atoms: _159  and  _162
REMARK   71  A    between atoms: _162  and  _163
REMARK   72  A    between atoms: _166  and  _168
REMARK   73  A    between atoms: _168  and  _169
REMARK   74  A    between atoms: _168  and  _171
REMARK   75  A    between atoms: _171  and  _172
REMARK   76  A    between atoms: _175  and  _177
REMARK   77  A    between atoms: _177  and  _178
REMARK   78  A    between atoms: _177  and  _180
REMARK   79  A    between atoms: _180  and  _181
REMARK   80  A    between atoms: _181  and  _182
REMARK   81  A    between atoms: _182  and  _183
REMARK   82  A    between atoms: _183  and  _184
REMARK   83  A    between atoms: _188  and  _190
REMARK   84  A    between atoms: _190  and  _191
REMARK   85  A    between atoms: _190  and  _193
REMARK   86  A    between atoms: _196  and  _198
REMARK   87  A    between atoms: _198  and  _199
REMARK   88  A    between atoms: _198  and  _201
REMARK   89  A    between atoms: _201  and  _202
REMARK   90  A    between atoms: _205  and  _207
REMARK   91  A    between atoms: _207  and  _208
REMARK   92  A    between atoms: _207  and  _210
REMARK   93  A    between atoms: _210  and  _211
REMARK   94  A    between atoms: _211  and  _212
REMARK   95  A    between atoms: _212  and  _213
REMARK   96  A    between atoms: _213  and  _214
REMARK   97  A    between atoms: _218  and  _220
REMARK   98  A    between atoms: _220  and  _221
REMARK   99  A    between atoms: _220  and  _223
REMARK  100  A    between atoms: _223  and  _224
REMARK  101  A    between atoms: _224  and  _225
REMARK  102  A    between atoms: _228  and  _230
REMARK  103  A    between atoms: _230  and  _231
REMARK  104  A    between atoms: _230  and  _233
REMARK  105  A    between atoms: _233  and  _234
REMARK  106  A    between atoms: _237  and  _239
REMARK  107  A    between atoms: _239  and  _240
REMARK  108  A    between atoms: _239  and  _242
REMARK  109  A    between atoms: _242  and  _243
REMARK  110  A    between atoms: _243  and  _244
REMARK  111  A    between atoms: _247  and  _249
REMARK  112  A    between atoms: _249  and  _250
REMARK  113  A    between atoms: _249  and  _252
REMARK  114  A    between atoms: _252  and  _253
REMARK  115  A    between atoms: _258  and  _260
REMARK  116  A    between atoms: _260  and  _261
REMARK  117  A    between atoms: _260  and  _263
REMARK  118  A    between atoms: _263  and  _264
REMARK  119  A    between atoms: _267  and  _269
REMARK  120  A    between atoms: _269  and  _270
REMARK  121  A    between atoms: _269  and  _272
REMARK  122  A    between atoms: _272  and  _273
REMARK  123  A    between atoms: _276  and  _278
REMARK  124  A    between atoms: _278  and  _279
REMARK  125  A    between atoms: _278  and  _281
REMARK  126  A    between atoms: _281  and  _282
REMARK  127  A    between atoms: _287  and  _289
REMARK  128  A    between atoms: _289  and  _290
REMARK  129  A    between atoms: _289  and  _292
REMARK  130  A    between atoms: _292  and  _293
REMARK  131  A    between atoms: _293  and  _294
REMARK  132  A    between atoms: _297  and  _299
REMARK  133  A    between atoms: _299  and  _300
REMARK  134  A    between atoms: _299  and  _302
REMARK  135  A    between atoms: _302  and  _303
REMARK  136  A    between atoms: _303  and  _304
REMARK  137  A    between atoms: _304  and  _305
REMARK  138  A    between atoms: _305  and  _306
REMARK  139  A    between atoms: _310  and  _312
REMARK  140  A    between atoms: _312  and  _313
REMARK  141  A    between atoms: _312  and  _315
REMARK  142  A    between atoms: _315  and  _316
REMARK  143  A    between atoms: _319  and  _321
REMARK  144  A    between atoms: _321  and  _322
REMARK  145  A    between atoms: _321  and  _324
REMARK  146  A    between atoms: _327  and  _329
REMARK  147  A    between atoms: _329  and  _330
REMARK  148  A    between atoms: _329  and  _332
REMARK  149  A    between atoms: _332  and  _333
REMARK  150  A    between atoms: _333  and  _334
REMARK  151  A    between atoms: _334  and  _335
REMARK  152  A    between atoms: _335  and  _336
REMARK  153  A    between atoms: _340  and  _342
REMARK  154  A    between atoms: _342  and  _343
REMARK  155  A    between atoms: _342  and  _345
REMARK  156  A    between atoms: _345  and  _346
REMARK  157  A    between atoms: _349  and  _351
REMARK  158  A    between atoms: _351  and  _352
REMARK  159  A    between atoms: _351  and  _354
REMARK  160  A    between atoms: _354  and  _355
REMARK  161  A    between atoms: _355  and  _356
REMARK  162  A    between atoms: _358  and  _360
REMARK  163  A    between atoms: _360  and  _361
REMARK  164  A    between atoms: _360  and  _363
REMARK  165  A    between atoms: _363  and  _364
REMARK  166  A    between atoms: _364  and  _365
REMARK  167  A    between atoms: _367  and  _369
REMARK  168  A    between atoms: _369  and  _370
REMARK  169  A    between atoms: _369  and  _372
REMARK  170  A    between atoms: _372  and  _373
REMARK  171  A    between atoms: _373  and  _374
REMARK  172  A    between atoms: _377  and  _379
REMARK  173  A    between atoms: _379  and  _380
REMARK  174  A    between atoms: _379  and  _382
REMARK  175  A    between atoms: _382  and  _383
REMARK  176  A    between atoms: _388  and  _389
REMARK  177  A    between atoms: _391  and  _393
REMARK  178  A    between atoms: _393  and  _394
REMARK  179  A    between atoms: _398  and  _399
REMARK  180  A    between atoms: _404  and  _406
REMARK  181  A    between atoms: _406  and  _407
REMARK  182  A    between atoms: _409  and  _411
REMARK  183  A    between atoms: _411  and  _412
REMARK  184  A    between atoms: _414  and  _416
REMARK  185  A    between atoms: _416  and  _417
REMARK  186  A    between atoms: _416  and  _419
REMARK  187  A    between atoms: _419  and  _420
REMARK  188  A    between atoms: _420  and  _421
REMARK  189  A    between atoms: _424  and  _426
REMARK  190  A    between atoms: _426  and  _427
REMARK  191  A    between atoms: _426  and  _429
REMARK  192  A    between atoms: _429  and  _430
REMARK  193  A    between atoms: _430  and  _431
REMARK  194  A    between atoms: _433  and  _435
REMARK  195  A    between atoms: _435  and  _436
REMARK  196  A    between atoms: _435  and  _438
REMARK  197  A    between atoms: _438  and  _439
REMARK  198  A    between atoms: _445  and  _447
REMARK  199  A    between atoms: _447  and  _448
REMARK  200  A    between atoms: _447  and  _450
REMARK  201  A    between atoms: _450  and  _451
REMARK  202  A    between atoms: _456  and  _457
REMARK  203  A    between atoms: _459  and  _461
REMARK  204  A    between atoms: _461  and  _462
REMARK  205  A    between atoms: _461  and  _464
REMARK  206  A    between atoms: _464  and  _465
REMARK  207  A    between atoms: _468  and  _470
REMARK  208  A    between atoms: _470  and  _471
REMARK  209  A    between atoms: _470  and  _473
REMARK  210  A    between atoms: _473  and  _474
REMARK  211  A    between atoms: _474  and  _475
REMARK  212  A    between atoms: _475  and  _476
REMARK  213  A    between atoms: _476  and  _477
REMARK  214  A    between atoms: _482  and  _483
REMARK  215  A    between atoms: _488  and  _490
REMARK  216  A    between atoms: _490  and  _491
REMARK  217  A    between atoms: _490  and  _493
REMARK  218  A    between atoms: _493  and  _494
REMARK  219  A    between atoms: _494  and  _495
REMARK  220  A    between atoms: _498  and  _500
REMARK  221  A    between atoms: _500  and  _501
REMARK  222  A    between atoms: _500  and  _503
REMARK  223  A    between atoms: _503  and  _504
REMARK  224  A    between atoms: _509  and  _511
REMARK  225  A    between atoms: _511  and  _512
REMARK  226  A    between atoms: _511  and  _514
REMARK  227  A    between atoms: _514  and  _515
REMARK  228  A    between atoms: _518  and  _520
REMARK  229  A    between atoms: _520  and  _521
REMARK  230  A    between atoms: _520  and  _523
REMARK  231  A    between atoms: _523  and  _524
REMARK  232  A    between atoms: _524  and  _525
REMARK  233  A    between atoms: _527  and  _529
REMARK  234  A    between atoms: _529  and  _530
REMARK  235  A    between atoms: _529  and  _532
REMARK  236  A    between atoms: _532  and  _533
REMARK  237  A    between atoms: _536  and  _538
REMARK  238  A    between atoms: _538  and  _539
REMARK  239  A    between atoms: _538  and  _541
REMARK  240  A    between atoms: _541  and  _542
REMARK  241  A    between atoms: _542  and  _543
REMARK  242  A    between atoms: _543  and  _544
REMARK  243  A    between atoms: _544  and  _545
REMARK  244  A    between atoms: _549  and  _551
REMARK  245  A    between atoms: _551  and  _552
REMARK  246  A    between atoms: _551  and  _554
REMARK  247  A    between atoms: _557  and  _559
REMARK  248  A    between atoms: _559  and  _560
REMARK  249  A    between atoms: _559  and  _562
REMARK  250  A    between atoms: _562  and  _563
REMARK  251  A    between atoms: _566  and  _568
REMARK  252  A    between atoms: _568  and  _569
REMARK  253  A    between atoms: _568  and  _571
REMARK  254  A    between atoms: _571  and  _572
REMARK  255  A    between atoms: _575  and  _577
REMARK  256  A    between atoms: _577  and  _578
REMARK  257  A    between atoms: _577  and  _580
REMARK  258  A    between atoms: _580  and  _581
REMARK  259  A    between atoms: _587  and  _589
REMARK  260  A    between atoms: _589  and  _590
REMARK  261  A    between atoms: _592  and  _594
REMARK  262  A    between atoms: _594  and  _595
REMARK  263  A    between atoms: _594  and  _597
REMARK  264  A    between atoms: _597  and  _598
REMARK  265  A    between atoms: _601  and  _603
REMARK  266  A    between atoms: _603  and  _604
REMARK  267  A    between atoms: _607  and  _609
REMARK  268  A    between atoms: _609  and  _610
REMARK  269  A    between atoms: _609  and  _612
REMARK  270  A    between atoms: _614  and  _616
REMARK  271  A    between atoms: _616  and  _617
REMARK  272  A    between atoms: _619  and  _621
REMARK  273  A    between atoms: _621  and  _622
REMARK  274  A    between atoms: _621  and  _624
REMARK  275  A    between atoms: _624  and  _625
REMARK  276  A    between atoms: _631  and  _633
REMARK  277  A    between atoms: _633  and  _634
REMARK  278  A    between atoms: _633  and  _636
REMARK  279  A    between atoms: _636  and  _637
REMARK  280  A    between atoms: _642  and  _643
REMARK                            x       y       z     vdW  Elec       q    Type
REMARK                         _______ _______ _______ _____ _____    ______ ____
ROOT
ATOM      1  CA  LYS A   4      16.855  37.540  10.300  0.00  0.00    +0.149 C 
ENDROOT
BRANCH   1   4
ATOM      2  C   MET A   3      17.516  38.976   8.459  0.00  0.00    +0.241 C 
ATOM      3  O   MET A   3      17.848  39.885   9.241  0.00  0.00    -0.273 OA
ATOM      4  N   LYS A   4      16.962  37.851   8.878  0.00  0.00    -0.297 N 
ATOM      5  H   LYS A   4      16.595  37.173   8.180  0.00  0.00    +0.150 HD
BRANCH   2   6
ATOM      6  CA  MET A   3      17.727  39.084   6.965  0.00  0.00    +0.149 C 
BRANCH   6   8
ATOM      7  C   ALA A   2      15.877  39.990   5.667  0.00  0.00    +0.241 C 
ATOM      8  N   MET A   3      16.972  40.180   6.387  0.00  0.00    -0.297 N 
ATOM      9  H   MET A   3      17.304  41.153   6.544  0.00  0.00    +0.150 HD
ATOM     10  O   ALA A   2      15.386  38.898   5.476  0.00  0.00    -0.273 OA
BRANCH   7  11
ATOM     11  CA  ALA A   2      15.246  41.224   5.046  0.00  0.00    +0.149 C 
ATOM     12  CB  ALA A   2      13.764  41.319   5.437  0.00  0.00    +0.031 C 
BRANCH  11  14
ATOM     13  C   TYR A   1      16.189  41.789   2.858  0.00  0.00    +0.239 C 
ATOM     14  N   ALA A   2      15.368  41.069   3.619  0.00  0.00    -0.297 N 
ATOM     15  H   ALA A   2      14.778  40.350   3.154  0.00  0.00    +0.150 HD
ATOM     16  O   TYR A   1      16.827  42.756   3.294  0.00  0.00    -0.274 OA
BRANCH  13  17
ATOM     17  CA  TYR A   1      16.275  41.376   1.384  0.00  0.00    +0.149 C 
BRANCH  17  18
ATOM     18  N   TYR A   1      16.970  42.433   0.648  0.00  0.00    -0.238 NA
ATOM     19  H   TYR A   1      17.773  42.910   1.106  0.00  0.00    +0.142 HD
ENDBRANCH  17  18
BRANCH  17  20
ATOM     20  CB  TYR A   1      17.059  40.059   1.256  0.00  0.00    +0.053 C 
BRANCH  20  21
ATOM     21  CG  TYR A   1      17.168  39.515  -0.155  0.00  0.00    -0.020 A 
ATOM     22  CD2 TYR A   1      16.070  38.933  -0.784  0.00  0.00    -0.001 A 
ATOM     23  CE2 TYR A   1      16.162  38.428  -2.072  0.00  0.00    +0.036 A 
ATOM     24  CZ  TYR A   1      17.362  38.512  -2.749  0.00  0.00    +0.134 A 
ATOM     25  CE1 TYR A   1      18.474  39.075  -2.145  0.00  0.00    +0.036 A 
ATOM     26  CD1 TYR A   1      18.375  39.584  -0.869  0.00  0.00    -0.001 A 
BRANCH  24  27
ATOM     27  OH  TYR A   1      17.438  38.001  -4.022  0.00  0.00    -0.506 OA
ATOM     28  HH  TYR A   1      16.553  37.644  -4.286  0.00  0.00    +0.292 HD
ENDBRANCH  24  27
ENDBRANCH  20  21
ENDBRANCH  17  20
ENDBRANCH  13  17
ENDBRANCH  11  14
ENDBRANCH   7  11
ENDBRANCH   6   8
BRANCH   6  29
ATOM     29  CB  MET A   3      19.218  39.251   6.686  0.00  0.00    +0.041 C 
BRANCH  29  30
ATOM     30  CG  MET A   3      20.035  38.072   7.162  0.00  0.00    +0.060 C 
BRANCH  30  31
ATOM     31  SD  MET A   3      21.790  38.199   6.643  0.00  0.00    -0.139 S 
ATOM     32  CE  MET A   3      22.225  39.227   7.639  0.00  0.00    +0.069 C 
ENDBRANCH  30  31
ENDBRANCH  29  30
ENDBRANCH   6  29
ENDBRANCH   2   6
ENDBRANCH   1   4
BRANCH   1  33
ATOM     33  C   LYS A   4      18.155  36.898  10.765  0.00  0.00    +0.241 C 
ATOM     34  N   ILE A   5      18.666  37.398  11.889  0.00  0.00    -0.297 N 
ATOM     35  H   ILE A   5      18.155  38.185  12.338  0.00  0.00    +0.150 HD
ATOM     36  O   LYS A   4      18.688  35.986  10.116  0.00  0.00    -0.273 OA
BRANCH  34  37
ATOM     37  CA  ILE A   5      19.883  36.932  12.540  0.00  0.00    +0.149 C 
BRANCH  37  38
ATOM     38  C   ILE A   5      19.520  36.500  13.953  0.00  0.00    +0.241 C 
ATOM     39  O   ILE A   5      18.986  37.300  14.722  0.00  0.00    -0.273 OA
ATOM     40  N   LEU A   6      19.795  35.247  14.286  0.00  0.00    -0.297 N 
ATOM     41  H   LEU A   6      20.256  34.638  13.580  0.00  0.00    +0.150 HD
BRANCH  40  42
ATOM     42  CA  LEU A   6      19.483  34.679  15.596  0.00  0.00    +0.149 C 
BRANCH  42  43
ATOM     43  C   LEU A   6      20.767  34.195  16.250  0.00  0.00    +0.241 C 
ATOM     44  N   ASP A   7      20.933  34.542  17.520  0.00  0.00    -0.298 N 
ATOM     45  H   ASP A   7      20.214  35.148  17.964  0.00  0.00    +0.150 HD
ATOM     46  O   LEU A   6      21.576  33.522  15.627  0.00  0.00    -0.273 OA
BRANCH  44  47
ATOM     47  CA  ASP A   7      22.071  34.117  18.325  0.00  0.00    +0.148 C 
BRANCH  47  48
ATOM     48  C   ASP A   7      21.839  32.715  18.884  0.00  0.00    +0.227 C 
ATOM     49  O   ASP A   7      20.978  32.520  19.745  0.00  0.00    -0.286 OA
ENDBRANCH  47  48
BRANCH  47  50
ATOM     50  CB  ASP A   7      22.285  35.131  19.454  0.00  0.00    +0.142 C 
BRANCH  50  51
ATOM     51  CG  ASP A   7      23.452  34.789  20.330  0.00  0.00    +0.367 C 
ATOM     52  OD2 ASP A   7      24.062  35.744  20.850  0.00  0.00    -0.246 OA
ATOM     53  OD1 ASP A   7      23.840  33.633  20.561  0.00  0.00    -0.246 OA
ENDBRANCH  50  51
ENDBRANCH  47  50
ENDBRANCH  44  47
ENDBRANCH  42  43
BRANCH  42  54
ATOM     54  CB  LEU A   6      18.511  33.509  15.475  0.00  0.00    +0.029 C 
BRANCH  54  55
ATOM     55  CG  LEU A   6      17.163  33.804  14.816  0.00  0.00    +0.002 C 
ATOM     56  CD2 LEU A   6      16.479  35.006  15.482  0.00  0.00    +0.000 C 
ATOM     57  CD1 LEU A   6      16.273  32.557  14.858  0.00  0.00    +0.000 C 
ENDBRANCH  54  55
ENDBRANCH  42  54
ENDBRANCH  40  42
ENDBRANCH  37  38
BRANCH  37  58
ATOM     58  CB  ILE A   5      20.935  38.067  12.608  0.00  0.00    +0.027 C 
ATOM     59  CG2 ILE A   5      22.242  37.552  13.151  0.00  0.00    +0.002 C 
BRANCH  58  60
ATOM     60  CG1 ILE A   5      21.154  38.690  11.237  0.00  0.00    +0.002 C 
ATOM     61  CD1 ILE A   5      21.583  40.123  11.308  0.00  0.00    +0.000 C 
ENDBRANCH  58  60
ENDBRANCH  37  58
ENDBRANCH  34  37
ENDBRANCH   1  33
BRANCH   1  62
ATOM     62  CB  LYS A   4      15.686  36.586  10.572  0.00  0.00    +0.029 C 
BRANCH  62  63
ATOM     63  CG  LYS A   4      15.490  36.257  12.053  0.00  0.00    +0.000 C 
BRANCH  63  64
ATOM     64  CD  LYS A   4      14.212  35.483  12.361  0.00  0.00    -0.024 C 
BRANCH  64  65
ATOM     65  CE  LYS A   4      12.954  36.279  12.168  0.00  0.00    -0.086 C 
BRANCH  65  66
ATOM     66  NZ  LYS A   4      11.755  35.515  12.732  0.00  0.00    +0.380 N 
ATOM     67  HZ1 LYS A   4      11.900  35.346  13.748  0.00  0.00    -0.089 HD
ATOM     68  HZ2 LYS A   4      10.891  36.076  12.592  0.00  0.00    -0.089 HD
ATOM     69  HZ3 LYS A   4      11.662  34.605  12.238  0.00  0.00    -0.089 HD
ENDBRANCH  65  66
ENDBRANCH  64  65
ENDBRANCH  63  64
ENDBRANCH  62  63
ENDBRANCH   1  62
TORSDOF 31
REMARK  Name = ../refined-set-2016/1xh9/1xh9_pocket.pdb
REMARK  280 active torsions:
REMARK  status: ('A' for Active; 'I' for Inactive)
REMARK    1  A    between atoms: _1  and  _3
REMARK    2  A    between atoms: _3  and  _4
REMARK    3  A    between atoms: _3  and  _6
REMARK    4  A    between atoms: _6  and  _7
REMARK    5  A    between atoms: _10  and  _12
REMARK    6  A    between atoms: _12  and  _13
REMARK    7  A    between atoms: _12  and  _15
REMARK    8  A    between atoms: _15  and  _16
REMARK    9  A    between atoms: _19  and  _21
REMARK   10  A    between atoms: _21  and  _22
REMARK   11  A    between atoms: _24  and  _26
REMARK   12  A    between atoms: _26  and  _27
REMARK   13  A    between atoms: _26  and  _29
REMARK   14  A    between atoms: _29  and  _30
REMARK   15  A    between atoms: _33  and  _35
REMARK   16  A    between atoms: _35  and  _36
REMARK   17  A    between atoms: _38  and  _40
REMARK   18  A    between atoms: _40  and  _41
REMARK   19  A    between atoms: _40  and  _43
REMARK   20  A    between atoms: _43  and  _44
REMARK   21  A    between atoms: _46  and  _48
REMARK   22  A    between atoms: _48  and  _49
REMARK   23  A    between atoms: _48  and  _51
REMARK   24  A    between atoms: _51  and  _52
REMARK   25  A    between atoms: _58  and  _60
REMARK   26  A    between atoms: _60  and  _61
REMARK   27  A    between atoms: _63  and  _65
REMARK   28  A    between atoms: _65  and  _66
REMARK   29  A    between atoms: _65  and  _68
REMARK   30  A    between atoms: _68  and  _69
REMARK   31  A    between atoms: _69  and  _70
REMARK   32  A    between atoms: _70  and  _71
REMARK   33  A    between atoms: _80  and  _82
REMARK   34  A    between atoms: _82  and  _83
REMARK   35  A    between atoms: _82  and  _85
REMARK   36  A    between atoms: _88  and  _90
REMARK   37  A    between atoms: _90  and  _91
REMARK   38  A    between atoms: _90  and  _93
REMARK   39  A    between atoms: _93  and  _94
REMARK   40  A    between atoms: _94  and  _95
REMARK   41  A    between atoms: _97  and  _99
REMARK   42  A    between atoms: _99  and  _100
REMARK   43  A    between atoms: _99  and  _102
REMARK   44  A    between atoms: _102  and  _103
REMARK   45  A    between atoms: _106  and  _108
REMARK   46  A    between atoms: _108  and  _109
REMARK   47  A    between atoms: _108  and  _111
REMARK   48  A    between atoms: _111  and  _112
REMARK   49  A    between atoms: _117  and  _118
REMARK   50  A    between atoms: _120  and  _122
REMARK   51  A    between atoms: _122  and  _123
REMARK   52  A    between atoms: _126  and  _128
REMARK   53  A    between atoms: _128  and  _129
REMARK   54  A    between atoms: _128  and  _131
REMARK   55  A    between atoms: _131  and  _132
REMARK   56  A    between atoms: _132  and  _133
REMARK   57  A    between atoms: _135  and  _137
REMARK   58  A    between atoms: _137  and  _138
REMARK   59  A    between atoms: _137  and  _140
REMARK   60  A    between atoms: _140  and  _141
REMARK   61  A    between atoms: _141  and  _142
REMARK   62  A    between atoms: _142  and  _143
REMARK   63  A    between atoms: _143  and  _144
REMARK   64  A    between atoms: _148  and  _150
REMARK   65  A    between atoms: _150  and  _151
REMARK   66  A    between atoms: _150  and  _153
REMARK   67  A    between atoms: _153  and  _154
REMARK   68  A    between atoms: _157  and  _159
REMARK   69  A    between atoms: _159  and  _160
REMARK   70  A    between atoms: _159  and  _162
REMARK   71  A    between atoms: _162  and  _163
REMARK   72  A    between atoms: _166  and  _168
REMARK   73  A    between atoms: _168  and  _169
REMARK   74  A    between atoms: _168  and  _171
REMARK   75  A    between atoms: _171  and  _172
REMARK   76  A    between atoms: _175  and  _177
REMARK   77  A    between atoms: _177  and  _178
REMARK   78  A    between atoms: _177  and  _180
REMARK   79  A    between atoms: _180  and  _181
REMARK   80  A    between atoms: _181  and  _182
REMARK   81  A    between atoms: _182  and  _183
REMARK   82  A    between atoms: _183  and  _184
REMARK   83  A    between atoms: _188  and  _190
REMARK   84  A    between atoms: _190  and  _191
REMARK   85  A    between atoms: _190  and  _193
REMARK   86  A    between atoms: _196  and  _198
REMARK   87  A    between atoms: _198  and  _199
REMARK   88  A    between atoms: _198  and  _201
REMARK   89  A    between atoms: _201  and  _202
REMARK   90  A    between atoms: _205  and  _207
REMARK   91  A    between atoms: _207  and  _208
REMARK   92  A    between atoms: _207  and  _210
REMARK   93  A    between atoms: _210  and  _211
REMARK   94  A    between atoms: _211  and  _212
REMARK   95  A    between atoms: _212  and  _213
REMARK   96  A    between atoms: _213  and  _214
REMARK   97  A    between atoms: _218  and  _220
REMARK   98  A    between atoms: _220  and  _221
REMARK   99  A    between atoms: _220  and  _223
REMARK  100  A    between atoms: _223  and  _224
REMARK  101  A    between atoms: _224  and  _225
REMARK  102  A    between atoms: _228  and  _230
REMARK  103  A    between atoms: _230  and  _231
REMARK  104  A    between atoms: _230  and  _233
REMARK  105  A    between atoms: _233  and  _234
REMARK  106  A    between atoms: _237  and  _239
REMARK  107  A    between atoms: _239  and  _240
REMARK  108  A    between atoms: _239  and  _242
REMARK  109  A    between atoms: _242  and  _243
REMARK  110  A    between atoms: _243  and  _244
REMARK  111  A    between atoms: _247  and  _249
REMARK  112  A    between atoms: _249  and  _250
REMARK  113  A    between atoms: _249  and  _252
REMARK  114  A    between atoms: _252  and  _253
REMARK  115  A    between atoms: _258  and  _260
REMARK  116  A    between atoms: _260  and  _261
REMARK  117  A    between atoms: _260  and  _263
REMARK  118  A    between atoms: _263  and  _264
REMARK  119  A    between atoms: _267  and  _269
REMARK  120  A    between atoms: _269  and  _270
REMARK  121  A    between atoms: _269  and  _272
REMARK  122  A    between atoms: _272  and  _273
REMARK  123  A    between atoms: _276  and  _278
REMARK  124  A    between atoms: _278  and  _279
REMARK  125  A    between atoms: _278  and  _281
REMARK  126  A    between atoms: _281  and  _282
REMARK  127  A    between atoms: _287  and  _289
REMARK  128  A    between atoms: _289  and  _290
REMARK  129  A    between atoms: _289  and  _292
REMARK  130  A    between atoms: _292  and  _293
REMARK  131  A    between atoms: _293  and  _294
REMARK  132  A    between atoms: _297  and  _299
REMARK  133  A    between atoms: _299  and  _300
REMARK  134  A    between atoms: _299  and  _302
REMARK  135  A    between atoms: _302  and  _303
REMARK  136  A    between atoms: _303  and  _304
REMARK  137  A    between atoms: _304  and  _305
REMARK  138  A    between atoms: _305  and  _306
REMARK  139  A    between atoms: _310  and  _312
REMARK  140  A    between atoms: _312  and  _313
REMARK  141  A    between atoms: _312  and  _315
REMARK  142  A    between atoms: _315  and  _316
REMARK  143  A    between atoms: _319  and  _321
REMARK  144  A    between atoms: _321  and  _322
REMARK  145  A    between atoms: _321  and  _324
REMARK  146  A    between atoms: _327  and  _329
REMARK  147  A    between atoms: _329  and  _330
REMARK  148  A    between atoms: _329  and  _332
REMARK  149  A    between atoms: _332  and  _333
REMARK  150  A    between atoms: _333  and  _334
REMARK  151  A    between atoms: _334  and  _335
REMARK  152  A    between atoms: _335  and  _336
REMARK  153  A    between atoms: _340  and  _342
REMARK  154  A    between atoms: _342  and  _343
REMARK  155  A    between atoms: _342  and  _345
REMARK  156  A    between atoms: _345  and  _346
REMARK  157  A    between atoms: _349  and  _351
REMARK  158  A    between atoms: _351  and  _352
REMARK  159  A    between atoms: _351  and  _354
REMARK  160  A    between atoms: _354  and  _355
REMARK  161  A    between atoms: _355  and  _356
REMARK  162  A    between atoms: _358  and  _360
REMARK  163  A    between atoms: _360  and  _361
REMARK  164  A    between atoms: _360  and  _363
REMARK  165  A    between atoms: _363  and  _364
REMARK  166  A    between atoms: _364  and  _365
REMARK  167  A    between atoms: _367  and  _369
REMARK  168  A    between atoms: _369  and  _370
REMARK  169  A    between atoms: _369  and  _372
REMARK  170  A    between atoms: _372  and  _373
REMARK  171  A    between atoms: _373  and  _374
REMARK  172  A    between atoms: _377  and  _379
REMARK  173  A    between atoms: _379  and  _380
REMARK  174  A    between atoms: _379  and  _382
REMARK  175  A    between atoms: _382  and  _383
REMARK  176  A    between atoms: _388  and  _389
REMARK  177  A    between atoms: _391  and  _393
REMARK  178  A    between atoms: _393  and  _394
REMARK  179  A    between atoms: _398  and  _399
REMARK  180  A    between atoms: _404  and  _406
REMARK  181  A    between atoms: _406  and  _407
REMARK  182  A    between atoms: _409  and  _411
REMARK  183  A    between atoms: _411  and  _412
REMARK  184  A    between atoms: _414  and  _416
REMARK  185  A    between atoms: _416  and  _417
REMARK  186  A    between atoms: _416  and  _419
REMARK  187  A    between atoms: _419  and  _420
REMARK  188  A    between atoms: _420  and  _421
REMARK  189  A    between atoms: _424  and  _426
REMARK  190  A    between atoms: _426  and  _427
REMARK  191  A    between atoms: _426  and  _429
REMARK  192  A    between atoms: _429  and  _430
REMARK  193  A    between atoms: _430  and  _431
REMARK  194  A    between atoms: _433  and  _435
REMARK  195  A    between atoms: _435  and  _436
REMARK  196  A    between atoms: _435  and  _438
REMARK  197  A    between atoms: _438  and  _439
REMARK  198  A    between atoms: _445  and  _447
REMARK  199  A    between atoms: _447  and  _448
REMARK  200  A    between atoms: _447  and  _450
REMARK  201  A    between atoms: _450  and  _451
REMARK  202  A    between atoms: _456  and  _457
REMARK  203  A    between atoms: _459  and  _461
REMARK  204  A    between atoms: _461  and  _462
REMARK  205  A    between atoms: _461  and  _464
REMARK  206  A    between atoms: _464  and  _465
REMARK  207  A    between atoms: _468  and  _470
REMARK  208  A    between atoms: _470  and  _471
REMARK  209  A    between atoms: _470  and  _473
REMARK  210  A    between atoms: _473  and  _474
REMARK  211  A    between atoms: _474  and  _475
REMARK  212  A    between atoms: _475  and  _476
REMARK  213  A    between atoms: _476  and  _477
REMARK  214  A    between atoms: _482  and  _483
REMARK  215  A    between atoms: _488  and  _490
REMARK  216  A    between atoms: _490  and  _491
REMARK  217  A    between atoms: _490  and  _493
REMARK  218  A    between atoms: _493  and  _494
REMARK  219  A    between atoms: _494  and  _495
REMARK  220  A    between atoms: _498  and  _500
REMARK  221  A    between atoms: _500  and  _501
REMARK  222  A    between atoms: _500  and  _503
REMARK  223  A    between atoms: _503  and  _504
REMARK  224  A    between atoms: _509  and  _511
REMARK  225  A    between atoms: _511  and  _512
REMARK  226  A    between atoms: _511  and  _514
REMARK  227  A    between atoms: _514  and  _515
REMARK  228  A    between atoms: _518  and  _520
REMARK  229  A    between atoms: _520  and  _521
REMARK  230  A    between atoms: _520  and  _523
REMARK  231  A    between atoms: _523  and  _524
REMARK  232  A    between atoms: _524  and  _525
REMARK  233  A    between atoms: _527  and  _529
REMARK  234  A    between atoms: _529  and  _530
REMARK  235  A    between atoms: _529  and  _532
REMARK  236  A    between atoms: _532  and  _533
REMARK  237  A    between atoms: _536  and  _538
REMARK  238  A    between atoms: _538  and  _539
REMARK  239  A    between atoms: _538  and  _541
REMARK  240  A    between atoms: _541  and  _542
REMARK  241  A    between atoms: _542  and  _543
REMARK  242  A    between atoms: _543  and  _544
REMARK  243  A    between atoms: _544  and  _545
REMARK  244  A    between atoms: _549  and  _551
REMARK  245  A    between atoms: _551  and  _552
REMARK  246  A    between atoms: _551  and  _554
REMARK  247  A    between atoms: _557  and  _559
REMARK  248  A    between atoms: _559  and  _560
REMARK  249  A    between atoms: _559  and  _562
REMARK  250  A    between atoms: _562  and  _563
REMARK  251  A    between atoms: _566  and  _568
REMARK  252  A    between atoms: _568  and  _569
REMARK  253  A    between atoms: _568  and  _571
REMARK  254  A    between atoms: _571  and  _572
REMARK  255  A    between atoms: _575  and  _577
REMARK  256  A    between atoms: _577  and  _578
REMARK  257  A    between atoms: _577  and  _580
REMARK  258  A    between atoms: _580  and  _581
REMARK  259  A    between atoms: _587  and  _589
REMARK  260  A    between atoms: _589  and  _590
REMARK  261  A    between atoms: _592  and  _594
REMARK  262  A    between atoms: _594  and  _595
REMARK  263  A    between atoms: _594  and  _597
REMARK  264  A    between atoms: _597  and  _598
REMARK  265  A    between atoms: _601  and  _603
REMARK  266  A    between atoms: _603  and  _604
REMARK  267  A    between atoms: _607  and  _609
REMARK  268  A    between atoms: _609  and  _610
REMARK  269  A    between atoms: _609  and  _612
REMARK  270  A    between atoms: _614  and  _616
REMARK  271  A    between atoms: _616  and  _617
REMARK  272  A    between atoms: _619  and  _621
REMARK  273  A    between atoms: _621  and  _622
REMARK  274  A    between atoms: _621  and  _624
REMARK  275  A    between atoms: _624  and  _625
REMARK  276  A    between atoms: _631  and  _633
REMARK  277  A    between atoms: _633  and  _634
REMARK  278  A    between atoms: _633  and  _636
REMARK  279  A    between atoms: _636  and  _637
REMARK  280  A    between atoms: _642  and  _643
REMARK                            x       y       z     vdW  Elec       q    Type
REMARK                         _______ _______ _______ _____ _____    ______ ____
ROOT
ATOM      1  CA  LYS A   1      20.500  32.729  23.347  0.00  0.00    +0.145 C 
ENDROOT
BRANCH   1   2
ATOM      2  C   LYS A   1      19.306  31.807  23.165  0.00  0.00    +0.238 C 
ATOM      3  O   LYS A   1      18.426  31.756  24.014  0.00  0.00    -0.274 OA
ATOM      4  N   VAL A   2      19.280  31.101  22.041  0.00  0.00    -0.298 N 
ATOM      5  H   VAL A   2      20.066  31.191  21.367  0.00  0.00    +0.150 HD
BRANCH   4   6
ATOM      6  CA  VAL A   2      18.176  30.203  21.730  0.00  0.00    +0.137 C 
BRANCH   6   7
ATOM      7  CB  VAL A   2      18.217  29.716  20.265  0.00  0.00    +0.026 C 
ATOM      8  CG2 VAL A   2      17.118  28.678  20.001  0.00  0.00    +0.002 C 
ATOM      9  CG1 VAL A   2      18.059  30.862  19.308  0.00  0.00    +0.002 C 
ENDBRANCH   6   7
BRANCH   6  10
ATOM     10  C   VAL A   2      18.202  28.985  22.634  0.00  0.00    +0.227 C 
ATOM     11  O   VAL A   2      17.187  28.607  23.205  0.00  0.00    -0.286 OA
ENDBRANCH   6  10
ENDBRANCH   4   6
ENDBRANCH   1   2
BRANCH   1  12
ATOM     12  N   LYS A   1      21.705  32.177  22.707  0.00  0.00    -0.238 NA
ATOM     13  H   LYS A   1      22.109  32.677  21.890  0.00  0.00    +0.142 HD
ENDBRANCH   1  12
BRANCH   1  14
ATOM     14  CB  LYS A   1      20.137  34.112  22.798  0.00  0.00    +0.026 C 
BRANCH  14  15
ATOM     15  CG  LYS A   1      21.132  35.244  23.124  0.00  0.00    -0.000 C 
BRANCH  15  16
ATOM     16  CD  LYS A   1      20.595  36.627  22.663  0.00  0.00    -0.024 C 
BRANCH  16  17
ATOM     17  CE  LYS A   1      21.687  37.718  22.590  0.00  0.00    -0.086 C 
BRANCH  17  18
ATOM     18  NZ  LYS A   1      22.009  38.175  21.188  0.00  0.00    +0.380 N 
ATOM     19  HZ1 LYS A   1      22.748  38.905  21.224  0.00  0.00    -0.089 HD
ATOM     20  HZ2 LYS A   1      21.153  38.568  20.748  0.00  0.00    -0.089 HD
ATOM     21  HZ3 LYS A   1      22.347  37.365  20.630  0.00  0.00    -0.089 HD
ENDBRANCH  17  18
ENDBRANCH  16  17
ENDBRANCH  15  16
ENDBRANCH  14  15
ENDBRANCH   1  14
TORSDOF 10
REMARK  Name = ../refined-set-2016/1xh9/1xh9_pocket.pdb
REMARK  280 active torsions:
REMARK  status: ('A' for Active; 'I' for Inactive)
REMARK    1  A    between atoms: _1  and  _3
REMARK    2  A    between atoms: _3  and  _4
REMARK    3  A    between atoms: _3  and  _6
REMARK    4  A    between atoms: _6  and  _7
REMARK    5  A    between atoms: _10  and  _12
REMARK    6  A    between atoms: _12  and  _13
REMARK    7  A    between atoms: _12  and  _15
REMARK    8  A    between atoms: _15  and  _16
REMARK    9  A    between atoms: _19  and  _21
REMARK   10  A    between atoms: _21  and  _22
REMARK   11  A    between atoms: _24  and  _26
REMARK   12  A    between atoms: _26  and  _27
REMARK   13  A    between atoms: _26  and  _29
REMARK   14  A    between atoms: _29  and  _30
REMARK   15  A    between atoms: _33  and  _35
REMARK   16  A    between atoms: _35  and  _36
REMARK   17  A    between atoms: _38  and  _40
REMARK   18  A    between atoms: _40  and  _41
REMARK   19  A    between atoms: _40  and  _43
REMARK   20  A    between atoms: _43  and  _44
REMARK   21  A    between atoms: _46  and  _48
REMARK   22  A    between atoms: _48  and  _49
REMARK   23  A    between atoms: _48  and  _51
REMARK   24  A    between atoms: _51  and  _52
REMARK   25  A    between atoms: _58  and  _60
REMARK   26  A    between atoms: _60  and  _61
REMARK   27  A    between atoms: _63  and  _65
REMARK   28  A    between atoms: _65  and  _66
REMARK   29  A    between atoms: _65  and  _68
REMARK   30  A    between atoms: _68  and  _69
REMARK   31  A    between atoms: _69  and  _70
REMARK   32  A    between atoms: _70  and  _71
REMARK   33  A    between atoms: _80  and  _82
REMARK   34  A    between atoms: _82  and  _83
REMARK   35  A    between atoms: _82  and  _85
REMARK   36  A    between atoms: _88  and  _90
REMARK   37  A    between atoms: _90  and  _91
REMARK   38  A    between atoms: _90  and  _93
REMARK   39  A    between atoms: _93  and  _94
REMARK   40  A    between atoms: _94  and  _95
REMARK   41  A    between atoms: _97  and  _99
REMARK   42  A    between atoms: _99  and  _100
REMARK   43  A    between atoms: _99  and  _102
REMARK   44  A    between atoms: _102  and  _103
REMARK   45  A    between atoms: _106  and  _108
REMARK   46  A    between atoms: _108  and  _109
REMARK   47  A    between atoms: _108  and  _111
REMARK   48  A    between atoms: _111  and  _112
REMARK   49  A    between atoms: _117  and  _118
REMARK   50  A    between atoms: _120  and  _122
REMARK   51  A    between atoms: _122  and  _123
REMARK   52  A    between atoms: _126  and  _128
REMARK   53  A    between atoms: _128  and  _129
REMARK   54  A    between atoms: _128  and  _131
REMARK   55  A    between atoms: _131  and  _132
REMARK   56  A    between atoms: _132  and  _133
REMARK   57  A    between atoms: _135  and  _137
REMARK   58  A    between atoms: _137  and  _138
REMARK   59  A    between atoms: _137  and  _140
REMARK   60  A    between atoms: _140  and  _141
REMARK   61  A    between atoms: _141  and  _142
REMARK   62  A    between atoms: _142  and  _143
REMARK   63  A    between atoms: _143  and  _144
REMARK   64  A    between atoms: _148  and  _150
REMARK   65  A    between atoms: _150  and  _151
REMARK   66  A    between atoms: _150  and  _153
REMARK   67  A    between atoms: _153  and  _154
REMARK   68  A    between atoms: _157  and  _159
REMARK   69  A    between atoms: _159  and  _160
REMARK   70  A    between atoms: _159  and  _162
REMARK   71  A    between atoms: _162  and  _163
REMARK   72  A    between atoms: _166  and  _168
REMARK   73  A    between atoms: _168  and  _169
REMARK   74  A    between atoms: _168  and  _171
REMARK   75  A    between atoms: _171  and  _172
REMARK   76  A    between atoms: _175  and  _177
REMARK   77  A    between atoms: _177  and  _178
REMARK   78  A    between atoms: _177  and  _180
REMARK   79  A    between atoms: _180  and  _181
REMARK   80  A    between atoms: _181  and  _182
REMARK   81  A    between atoms: _182  and  _183
REMARK   82  A    between atoms: _183  and  _184
REMARK   83  A    between atoms: _188  and  _190
REMARK   84  A    between atoms: _190  and  _191
REMARK   85  A    between atoms: _190  and  _193
REMARK   86  A    between atoms: _196  and  _198
REMARK   87  A    between atoms: _198  and  _199
REMARK   88  A    between atoms: _198  and  _201
REMARK   89  A    between atoms: _201  and  _202
REMARK   90  A    between atoms: _205  and  _207
REMARK   91  A    between atoms: _207  and  _208
REMARK   92  A    between atoms: _207  and  _210
REMARK   93  A    between atoms: _210  and  _211
REMARK   94  A    between atoms: _211  and  _212
REMARK   95  A    between atoms: _212  and  _213
REMARK   96  A    between atoms: _213  and  _214
REMARK   97  A    between atoms: _218  and  _220
REMARK   98  A    between atoms: _220  and  _221
REMARK   99  A    between atoms: _220  and  _223
REMARK  100  A    between atoms: _223  and  _224
REMARK  101  A    between atoms: _224  and  _225
REMARK  102  A    between atoms: _228  and  _230
REMARK  103  A    between atoms: _230  and  _231
REMARK  104  A    between atoms: _230  and  _233
REMARK  105  A    between atoms: _233  and  _234
REMARK  106  A    between atoms: _237  and  _239
REMARK  107  A    between atoms: _239  and  _240
REMARK  108  A    between atoms: _239  and  _242
REMARK  109  A    between atoms: _242  and  _243
REMARK  110  A    between atoms: _243  and  _244
REMARK  111  A    between atoms: _247  and  _249
REMARK  112  A    between atoms: _249  and  _250
REMARK  113  A    between atoms: _249  and  _252
REMARK  114  A    between atoms: _252  and  _253
REMARK  115  A    between atoms: _258  and  _260
REMARK  116  A    between atoms: _260  and  _261
REMARK  117  A    between atoms: _260  and  _263
REMARK  118  A    between atoms: _263  and  _264
REMARK  119  A    between atoms: _267  and  _269
REMARK  120  A    between atoms: _269  and  _270
REMARK  121  A    between atoms: _269  and  _272
REMARK  122  A    between atoms: _272  and  _273
REMARK  123  A    between atoms: _276  and  _278
REMARK  124  A    between atoms: _278  and  _279
REMARK  125  A    between atoms: _278  and  _281
REMARK  126  A    between atoms: _281  and  _282
REMARK  127  A    between atoms: _287  and  _289
REMARK  128  A    between atoms: _289  and  _290
REMARK  129  A    between atoms: _289  and  _292
REMARK  130  A    between atoms: _292  and  _293
REMARK  131  A    between atoms: _293  and  _294
REMARK  132  A    between atoms: _297  and  _299
REMARK  133  A    between atoms: _299  and  _300
REMARK  134  A    between atoms: _299  and  _302
REMARK  135  A    between atoms: _302  and  _303
REMARK  136  A    between atoms: _303  and  _304
REMARK  137  A    between atoms: _304  and  _305
REMARK  138  A    between atoms: _305  and  _306
REMARK  139  A    between atoms: _310  and  _312
REMARK  140  A    between atoms: _312  and  _313
REMARK  141  A    between atoms: _312  and  _315
REMARK  142  A    between atoms: _315  and  _316
REMARK  143  A    between atoms: _319  and  _321
REMARK  144  A    between atoms: _321  and  _322
REMARK  145  A    between atoms: _321  and  _324
REMARK  146  A    between atoms: _327  and  _329
REMARK  147  A    between atoms: _329  and  _330
REMARK  148  A    between atoms: _329  and  _332
REMARK  149  A    between atoms: _332  and  _333
REMARK  150  A    between atoms: _333  and  _334
REMARK  151  A    between atoms: _334  and  _335
REMARK  152  A    between atoms: _335  and  _336
REMARK  153  A    between atoms: _340  and  _342
REMARK  154  A    between atoms: _342  and  _343
REMARK  155  A    between atoms: _342  and  _345
REMARK  156  A    between atoms: _345  and  _346
REMARK  157  A    between atoms: _349  and  _351
REMARK  158  A    between atoms: _351  and  _352
REMARK  159  A    between atoms: _351  and  _354
REMARK  160  A    between atoms: _354  and  _355
REMARK  161  A    between atoms: _355  and  _356
REMARK  162  A    between atoms: _358  and  _360
REMARK  163  A    between atoms: _360  and  _361
REMARK  164  A    between atoms: _360  and  _363
REMARK  165  A    between atoms: _363  and  _364
REMARK  166  A    between atoms: _364  and  _365
REMARK  167  A    between atoms: _367  and  _369
REMARK  168  A    between atoms: _369  and  _370
REMARK  169  A    between atoms: _369  and  _372
REMARK  170  A    between atoms: _372  and  _373
REMARK  171  A    between atoms: _373  and  _374
REMARK  172  A    between atoms: _377  and  _379
REMARK  173  A    between atoms: _379  and  _380
REMARK  174  A    between atoms: _379  and  _382
REMARK  175  A    between atoms: _382  and  _383
REMARK  176  A    between atoms: _388  and  _389
REMARK  177  A    between atoms: _391  and  _393
REMARK  178  A    between atoms: _393  and  _394
REMARK  179  A    between atoms: _398  and  _399
REMARK  180  A    between atoms: _404  and  _406
REMARK  181  A    between atoms: _406  and  _407
REMARK  182  A    between atoms: _409  and  _411
REMARK  183  A    between atoms: _411  and  _412
REMARK  184  A    between atoms: _414  and  _416
REMARK  185  A    between atoms: _416  and  _417
REMARK  186  A    between atoms: _416  and  _419
REMARK  187  A    between atoms: _419  and  _420
REMARK  188  A    between atoms: _420  and  _421
REMARK  189  A    between atoms: _424  and  _426
REMARK  190  A    between atoms: _426  and  _427
REMARK  191  A    between atoms: _426  and  _429
REMARK  192  A    between atoms: _429  and  _430
REMARK  193  A    between atoms: _430  and  _431
REMARK  194  A    between atoms: _433  and  _435
REMARK  195  A    between atoms: _435  and  _436
REMARK  196  A    between atoms: _435  and  _438
REMARK  197  A    between atoms: _438  and  _439
REMARK  198  A    between atoms: _445  and  _447
REMARK  199  A    between atoms: _447  and  _448
REMARK  200  A    between atoms: _447  and  _450
REMARK  201  A    between atoms: _450  and  _451
REMARK  202  A    between atoms: _456  and  _457
REMARK  203  A    between atoms: _459  and  _461
REMARK  204  A    between atoms: _461  and  _462
REMARK  205  A    between atoms: _461  and  _464
REMARK  206  A    between atoms: _464  and  _465
REMARK  207  A    between atoms: _468  and  _470
REMARK  208  A    between atoms: _470  and  _471
REMARK  209  A    between atoms: _470  and  _473
REMARK  210  A    between atoms: _473  and  _474
REMARK  211  A    between atoms: _474  and  _475
REMARK  212  A    between atoms: _475  and  _476
REMARK  213  A    between atoms: _476  and  _477
REMARK  214  A    between atoms: _482  and  _483
REMARK  215  A    between atoms: _488  and  _490
REMARK  216  A    between atoms: _490  and  _491
REMARK  217  A    between atoms: _490  and  _493
REMARK  218  A    between atoms: _493  and  _494
REMARK  219  A    between atoms: _494  and  _495
REMARK  220  A    between atoms: _498  and  _500
REMARK  221  A    between atoms: _500  and  _501
REMARK  222  A    between atoms: _500  and  _503
REMARK  223  A    between atoms: _503  and  _504
REMARK  224  A    between atoms: _509  and  _511
REMARK  225  A    between atoms: _511  and  _512
REMARK  226  A    between atoms: _511  and  _514
REMARK  227  A    between atoms: _514  and  _515
REMARK  228  A    between atoms: _518  and  _520
REMARK  229  A    between atoms: _520  and  _521
REMARK  230  A    between atoms: _520  and  _523
REMARK  231  A    between atoms: _523  and  _524
REMARK  232  A    between atoms: _524  and  _525
REMARK  233  A    between atoms: _527  and  _529
REMARK  234  A    between atoms: _529  and  _530
REMARK  235  A    between atoms: _529  and  _532
REMARK  236  A    between atoms: _532  and  _533
REMARK  237  A    between atoms: _536  and  _538
REMARK  238  A    between atoms: _538  and  _539
REMARK  239  A    between atoms: _538  and  _541
REMARK  240  A    between atoms: _541  and  _542
REMARK  241  A    between atoms: _542  and  _543
REMARK  242  A    between atoms: _543  and  _544
REMARK  243  A    between atoms: _544  and  _545
REMARK  244  A    between atoms: _549  and  _551
REMARK  245  A    between atoms: _551  and  _552
REMARK  246  A    between atoms: _551  and  _554
REMARK  247  A    between atoms: _557  and  _559
REMARK  248  A    between atoms: _559  and  _560
REMARK  249  A    between atoms: _559  and  _562
REMARK  250  A    between atoms: _562  and  _563
REMARK  251  A    between atoms: _566  and  _568
REMARK  252  A    between atoms: _568  and  _569
REMARK  253  A    between atoms: _568  and  _571
REMARK  254  A    between atoms: _571  and  _572
REMARK  255  A    between atoms: _575  and  _577
REMARK  256  A    between atoms: _577  and  _578
REMARK  257  A    between atoms: _577  and  _580
REMARK  258  A    between atoms: _580  and  _581
REMARK  259  A    between atoms: _587  and  _589
REMARK  260  A    between atoms: _589  and  _590
REMARK  261  A    between atoms: _592  and  _594
REMARK  262  A    between atoms: _594  and  _595
REMARK  263  A    between atoms: _594  and  _597
REMARK  264  A    between atoms: _597  and  _598
REMARK  265  A    between atoms: _601  and  _603
REMARK  266  A    between atoms: _603  and  _604
REMARK  267  A    between atoms: _607  and  _609
REMARK  268  A    between atoms: _609  and  _610
REMARK  269  A    between atoms: _609  and  _612
REMARK  270  A    between atoms: _614  and  _616
REMARK  271  A    between atoms: _616  and  _617
REMARK  272  A    between atoms: _619  and  _621
REMARK  273  A    between atoms: _621  and  _622
REMARK  274  A    between atoms: _621  and  _624
REMARK  275  A    between atoms: _624  and  _625
REMARK  276  A    between atoms: _631  and  _633
REMARK  277  A    between atoms: _633  and  _634
REMARK  278  A    between atoms: _633  and  _636
REMARK  279  A    between atoms: _636  and  _637
REMARK  280  A    between atoms: _642  and  _643
REMARK                            x       y       z     vdW  Elec       q    Type
REMARK                         _______ _______ _______ _____ _____    ______ ____
ROOT
ATOM      1  CA  HIS A   6      10.715  26.339  17.576  0.00  0.00    +0.155 C 
ENDROOT
BRANCH   1   3
ATOM      2  C   GLU A   5      11.955  24.263  17.613  0.00  0.00    +0.241 C 
ATOM      3  N   HIS A   6      11.517  25.337  18.264  0.00  0.00    -0.297 N 
ATOM      4  H   HIS A   6      11.749  25.462  19.270  0.00  0.00    +0.150 HD
ATOM      5  O   GLU A   5      11.711  24.070  16.428  0.00  0.00    -0.273 OA
BRANCH   2   6
ATOM      6  CA  GLU A   5      12.810  23.267  18.398  0.00  0.00    +0.149 C 
BRANCH   6   8
ATOM      7  C   ILE A   4      14.721  24.682  18.780  0.00  0.00    +0.241 C 
ATOM      8  N   GLU A   5      13.731  23.960  19.287  0.00  0.00    -0.297 N 
ATOM      9  H   GLU A   5      13.613  23.889  20.318  0.00  0.00    +0.150 HD
ATOM     10  O   ILE A   4      14.801  24.933  17.583  0.00  0.00    -0.273 OA
BRANCH   7  11
ATOM     11  CA  ILE A   4      15.759  25.219  19.742  0.00  0.00    +0.149 C 
BRANCH  11  13
ATOM     12  C   GLU A   3      14.285  26.849  20.756  0.00  0.00    +0.241 C 
ATOM     13  N   ILE A   4      15.108  25.817  20.894  0.00  0.00    -0.297 N 
ATOM     14  H   ILE A   4      15.290  25.430  21.842  0.00  0.00    +0.150 HD
ATOM     15  O   GLU A   3      13.954  27.306  19.664  0.00  0.00    -0.273 OA
BRANCH  12  16
ATOM     16  CA  GLU A   3      13.709  27.410  22.036  0.00  0.00    +0.149 C 
BRANCH  16  19
ATOM     17  C   LYS A   2      14.177  26.449  24.214  0.00  0.00    +0.241 C 
ATOM     18  O   LYS A   2      13.068  25.900  24.247  0.00  0.00    -0.273 OA
ATOM     19  N   GLU A   3      14.595  27.154  23.165  0.00  0.00    -0.297 N 
ATOM     20  H   GLU A   3      15.566  27.527  23.151  0.00  0.00    +0.150 HD
BRANCH  17  21
ATOM     21  CA  LYS A   2      15.150  26.355  25.400  0.00  0.00    +0.149 C 
BRANCH  21  24
ATOM     22  C   LEU A   1      15.063  28.737  26.071  0.00  0.00    +0.238 C 
ATOM     23  O   LEU A   1      13.837  28.794  26.048  0.00  0.00    -0.274 OA
ATOM     24  N   LYS A   2      15.760  27.659  25.699  0.00  0.00    -0.297 N 
ATOM     25  H   LYS A   2      16.793  27.748  25.616  0.00  0.00    +0.150 HD
BRANCH  22  26
ATOM     26  CA  LEU A   1      15.866  29.933  26.588  0.00  0.00    +0.145 C 
BRANCH  26  27
ATOM     27  N   LEU A   1      17.298  29.774  26.343  0.00  0.00    -0.238 NA
ATOM     28  H   LEU A   1      17.696  30.113  25.444  0.00  0.00    +0.142 HD
ENDBRANCH  26  27
BRANCH  26  29
ATOM     29  CB  LEU A   1      15.358  31.250  25.994  0.00  0.00    +0.026 C 
BRANCH  29  30
ATOM     30  CG  LEU A   1      15.649  32.550  26.768  0.00  0.00    +0.002 C 
ATOM     31  CD2 LEU A   1      15.374  32.367  28.273  0.00  0.00    +0.000 C 
ATOM     32  CD1 LEU A   1      14.839  33.735  26.204  0.00  0.00    +0.000 C 
ENDBRANCH  29  30
ENDBRANCH  26  29
ENDBRANCH  22  26
ENDBRANCH  21  24
BRANCH  21  33
ATOM     33  CB  LYS A   2      14.427  25.794  26.631  0.00  0.00    +0.029 C 
BRANCH  33  34
ATOM     34  CG  LYS A   2      15.262  25.771  27.913  0.00  0.00    +0.000 C 
BRANCH  34  35
ATOM     35  CD  LYS A   2      15.229  24.387  28.588  0.00  0.00    -0.024 C 
BRANCH  35  36
ATOM     36  CE  LYS A   2      15.514  24.463  30.088  0.00  0.00    -0.086 C 
BRANCH  36  37
ATOM     37  NZ  LYS A   2      16.982  24.432  30.384  0.00  0.00    +0.380 N 
ATOM     38  HZ1 LYS A   2      17.128  24.486  31.412  0.00  0.00    -0.089 HD
ATOM     39  HZ2 LYS A   2      17.389  23.547  30.020  0.00  0.00    -0.089 HD
ATOM     40  HZ3 LYS A   2      17.444  25.242  29.924  0.00  0.00    -0.089 HD
ENDBRANCH  36  37
ENDBRANCH  35  36
ENDBRANCH  34  35
ENDBRANCH  33  34
ENDBRANCH  21  33
ENDBRANCH  17  21
ENDBRANCH  16  19
BRANCH  16  41
ATOM     41  CB  GLU A   3      13.458  28.901  21.916  0.00  0.00    +0.041 C 
BRANCH  41  42
ATOM     42  CG  GLU A   3      12.526  29.414  23.003  0.00  0.00    +0.116 C 
BRANCH  42  43
ATOM     43  CD  GLU A   3      11.121  28.851  22.904  0.00  0.00    +0.365 C 
ATOM     44  OE2 GLU A   3      10.308  29.161  23.801  0.00  0.00    -0.246 OA
ATOM     45  OE1 GLU A   3      10.819  28.137  21.922  0.00  0.00    -0.246 OA
ENDBRANCH  42  43
ENDBRANCH  41  42
ENDBRANCH  16  41
ENDBRANCH  12  16
ENDBRANCH  11  13
BRANCH  11  46
ATOM     46  CB  ILE A   4      16.721  24.078  20.149  0.00  0.00    +0.027 C 
ATOM     47  CG2 ILE A   4      17.293  23.396  18.912  0.00  0.00    +0.002 C 
BRANCH  46  48
ATOM     48  CG1 ILE A   4      17.837  24.621  21.047  0.00  0.00    +0.002 C 
ATOM     49  CD1 ILE A   4      18.583  23.525  21.762  0.00  0.00    +0.000 C 
ENDBRANCH  46  48
ENDBRANCH  11  46
ENDBRANCH   7  11
ENDBRANCH   6   8
BRANCH   6  50
ATOM     50  CB  GLU A   5      11.928  22.270  19.175  0.00  0.00    +0.041 C 
BRANCH  50  51
ATOM     51  CG  GLU A   5      11.230  21.250  18.307  0.00  0.00    +0.116 C 
BRANCH  51  52
ATOM     52  CD  GLU A   5      12.145  20.140  17.758  0.00  0.00    +0.365 C 
ATOM     53  OE2 GLU A   5      13.201  19.777  18.352  0.00  0.00    -0.246 OA
ATOM     54  OE1 GLU A   5      11.779  19.606  16.716  0.00  0.00    -0.246 OA
ENDBRANCH  51  52
ENDBRANCH  50  51
ENDBRANCH   6  50
ENDBRANCH   2   6
ENDBRANCH   1   3
BRANCH   1  55
ATOM     55  C   HIS A   6      11.536  27.048  16.470  0.00  0.00    +0.241 C 
ATOM     56  N   THR A   7      12.805  27.344  16.722  0.00  0.00    -0.295 N 
ATOM     57  H   THR A   7      13.208  27.135  17.657  0.00  0.00    +0.150 HD
ATOM     58  O   HIS A   6      11.020  27.322  15.402  0.00  0.00    -0.273 OA
BRANCH  56  59
ATOM     59  CA  THR A   7      13.643  27.965  15.688  0.00  0.00    +0.176 C 
BRANCH  59  60
ATOM     60  C   THR A   7      13.879  27.018  14.501  0.00  0.00    +0.243 C 
ATOM     61  N   LEU A   8      14.045  25.714  14.776  0.00  0.00    -0.297 N 
ATOM     62  H   LEU A   8      14.081  25.404  15.768  0.00  0.00    +0.150 HD
ATOM     63  O   THR A   7      13.902  27.465  13.352  0.00  0.00    -0.273 OA
BRANCH  61  64
ATOM     64  CA  LEU A   8      14.177  24.718  13.708  0.00  0.00    +0.149 C 
BRANCH  64  65
ATOM     65  C   LEU A   8      12.869  24.585  12.928  0.00  0.00    +0.241 C 
ATOM     66  N   ASN A   9      11.727  24.651  13.612  0.00  0.00    -0.297 N 
ATOM     67  H   ASN A   9      11.762  24.693  14.651  0.00  0.00    +0.150 HD
ATOM     68  O   LEU A   8      12.908  24.416  11.716  0.00  0.00    -0.273 OA
BRANCH  66  69
ATOM     69  CA  ASN A   9      10.416  24.666  12.940  0.00  0.00    +0.158 C 
BRANCH  69  70
ATOM     70  C   ASN A   9      10.320  25.857  11.952  0.00  0.00    +0.241 C 
ATOM     71  N   GLU A  10      10.719  27.042  12.432  0.00  0.00    -0.297 N 
ATOM     72  H   GLU A  10      11.119  27.083  13.391  0.00  0.00    +0.150 HD
ATOM     73  O   ASN A   9       9.882  25.709  10.806  0.00  0.00    -0.273 OA
BRANCH  71  74
ATOM     74  CA  GLU A  10      10.614  28.287  11.657  0.00  0.00    +0.149 C 
BRANCH  74  75
ATOM     75  C   GLU A  10      11.301  28.130  10.317  0.00  0.00    +0.241 C 
ATOM     76  N   LYS A  11      12.552  27.699  10.374  0.00  0.00    -0.298 N 
ATOM     77  H   LYS A  11      12.981  27.454  11.289  0.00  0.00    +0.150 HD
ATOM     78  O   GLU A  10      10.712  28.369   9.243  0.00  0.00    -0.273 OA
BRANCH  76  79
ATOM     79  CA  LYS A  11      13.317  27.572   9.152  0.00  0.00    +0.137 C 
BRANCH  79  80
ATOM     80  C   LYS A  11      12.870  26.413   8.266  0.00  0.00    +0.227 C 
ATOM     81  O   LYS A  11      12.796  26.575   7.051  0.00  0.00    -0.286 OA
ENDBRANCH  79  80
BRANCH  79  82
ATOM     82  CB  LYS A  11      14.811  27.512   9.477  0.00  0.00    +0.028 C 
BRANCH  82  83
ATOM     83  CG  LYS A  11      15.679  27.315   8.243  0.00  0.00    -0.000 C 
BRANCH  83  84
ATOM     84  CD  LYS A  11      16.085  25.879   8.115  0.00  0.00    -0.024 C 
BRANCH  84  85
ATOM     85  CE  LYS A  11      16.754  25.638   6.770  0.00  0.00    -0.086 C 
BRANCH  85  86
ATOM     86  NZ  LYS A  11      17.359  24.287   6.699  0.00  0.00    +0.380 N 
ATOM     87  HZ1 LYS A  11      18.076  24.190   7.446  0.00  0.00    -0.089 HD
ATOM     88  HZ2 LYS A  11      16.618  23.569   6.832  0.00  0.00    -0.089 HD
ATOM     89  HZ3 LYS A  11      17.806  24.157   5.769  0.00  0.00    -0.089 HD
ENDBRANCH  85  86
ENDBRANCH  84  85
ENDBRANCH  83  84
ENDBRANCH  82  83
ENDBRANCH  79  82
ENDBRANCH  76  79
ENDBRANCH  74  75
BRANCH  74  90
ATOM     90  CB  GLU A  10      11.243  29.478  12.409  0.00  0.00    +0.041 C 
BRANCH  90  91
ATOM     91  CG  GLU A  10      11.153  30.755  11.615  0.00  0.00    +0.116 C 
BRANCH  91  92
ATOM     92  CD  GLU A  10      11.610  31.989  12.387  0.00  0.00    +0.365 C 
ATOM     93  OE2 GLU A  10      12.189  31.844  13.466  0.00  0.00    -0.246 OA
ATOM     94  OE1 GLU A  10      11.442  33.085  11.836  0.00  0.00    -0.246 OA
ENDBRANCH  91  92
ENDBRANCH  90  91
ENDBRANCH  74  90
ENDBRANCH  71  74
ENDBRANCH  69  70
BRANCH  69  95
ATOM     95  CB  ASN A   9       9.276  24.866  13.943  0.00  0.00    +0.114 C 
BRANCH  95  96
ATOM     96  CG  ASN A   9       8.968  23.644  14.803  0.00  0.00    +0.222 C 
ATOM     97  ND2 ASN A   9       8.249  23.896  15.896  0.00  0.00    -0.329 N 
ATOM     98 HD21 ASN A   9       7.959  23.115  16.519  0.00  0.00    +0.145 HD
ATOM     99 HD22 ASN A   9       7.978  24.873  16.126  0.00  0.00    +0.145 HD
ATOM    100  OD1 ASN A   9       9.313  22.498  14.490  0.00  0.00    -0.275 OA
ENDBRANCH  95  96
ENDBRANCH  69  95
ENDBRANCH  66  69
ENDBRANCH  64  65
BRANCH  64 101
ATOM    101  CB  LEU A   8      14.616  23.346  14.238  0.00  0.00    +0.029 C 
BRANCH 101 102
ATOM    102  CG  LEU A   8      16.005  23.298  14.849  0.00  0.00    +0.002 C 
ATOM    103  CD2 LEU A   8      16.269  21.892  15.454  0.00  0.00    +0.000 C 
ATOM    104  CD1 LEU A   8      17.121  23.727  13.850  0.00  0.00    +0.000 C 
ENDBRANCH 101 102
ENDBRANCH  64 101
ENDBRANCH  61  64
ENDBRANCH  59  60
BRANCH  59 105
ATOM    105  CB  THR A   7      14.984  28.506  16.239  0.00  0.00    +0.137 C 
ATOM    106  CG2 THR A   7      14.746  29.459  17.406  0.00  0.00    +0.034 C 
BRANCH 105 107
ATOM    107  OG1 THR A   7      15.792  27.431  16.745  0.00  0.00    -0.382 OA
ATOM    108  HG1 THR A   7      15.307  26.970  17.475  0.00  0.00    +0.210 HD
ENDBRANCH 105 107
ENDBRANCH  59 105
ENDBRANCH  56  59
ENDBRANCH   1  55
BRANCH   1 109
ATOM    109  CB  HIS A   6      10.148  27.366  18.565  0.00  0.00    +0.076 C 
BRANCH 109 110
ATOM    110  CG  HIS A   6       8.967  26.867  19.340  0.00  0.00    +0.082 A 
ATOM    111  ND1 HIS A   6       8.577  27.430  20.538  0.00  0.00    -0.227 NA
ATOM    112  CE1 HIS A   6       7.519  26.782  21.001  0.00  0.00    +0.199 A 
ATOM    113  NE2 HIS A   6       7.205  25.823  20.146  0.00  0.00    -0.221 NA
ATOM    114  CD2 HIS A   6       8.094  25.858  19.096  0.00  0.00    +0.115 A 
ENDBRANCH 109 110
ENDBRANCH   1 109
TORSDOF 53
REMARK  Name = ../refined-set-2016/1xh9/1xh9_pocket.pdb
REMARK  280 active torsions:
REMARK  status: ('A' for Active; 'I' for Inactive)
REMARK    1  A    between atoms: _1  and  _3
REMARK    2  A    between atoms: _3  and  _4
REMARK    3  A    between atoms: _3  and  _6
REMARK    4  A    between atoms: _6  and  _7
REMARK    5  A    between atoms: _10  and  _12
REMARK    6  A    between atoms: _12  and  _13
REMARK    7  A    between atoms: _12  and  _15
REMARK    8  A    between atoms: _15  and  _16
REMARK    9  A    between atoms: _19  and  _21
REMARK   10  A    between atoms: _21  and  _22
REMARK   11  A    between atoms: _24  and  _26
REMARK   12  A    between atoms: _26  and  _27
REMARK   13  A    between atoms: _26  and  _29
REMARK   14  A    between atoms: _29  and  _30
REMARK   15  A    between atoms: _33  and  _35
REMARK   16  A    between atoms: _35  and  _36
REMARK   17  A    between atoms: _38  and  _40
REMARK   18  A    between atoms: _40  and  _41
REMARK   19  A    between atoms: _40  and  _43
REMARK   20  A    between atoms: _43  and  _44
REMARK   21  A    between atoms: _46  and  _48
REMARK   22  A    between atoms: _48  and  _49
REMARK   23  A    between atoms: _48  and  _51
REMARK   24  A    between atoms: _51  and  _52
REMARK   25  A    between atoms: _58  and  _60
REMARK   26  A    between atoms: _60  and  _61
REMARK   27  A    between atoms: _63  and  _65
REMARK   28  A    between atoms: _65  and  _66
REMARK   29  A    between atoms: _65  and  _68
REMARK   30  A    between atoms: _68  and  _69
REMARK   31  A    between atoms: _69  and  _70
REMARK   32  A    between atoms: _70  and  _71
REMARK   33  A    between atoms: _80  and  _82
REMARK   34  A    between atoms: _82  and  _83
REMARK   35  A    between atoms: _82  and  _85
REMARK   36  A    between atoms: _88  and  _90
REMARK   37  A    between atoms: _90  and  _91
REMARK   38  A    between atoms: _90  and  _93
REMARK   39  A    between atoms: _93  and  _94
REMARK   40  A    between atoms: _94  and  _95
REMARK   41  A    between atoms: _97  and  _99
REMARK   42  A    between atoms: _99  and  _100
REMARK   43  A    between atoms: _99  and  _102
REMARK   44  A    between atoms: _102  and  _103
REMARK   45  A    between atoms: _106  and  _108
REMARK   46  A    between atoms: _108  and  _109
REMARK   47  A    between atoms: _108  and  _111
REMARK   48  A    between atoms: _111  and  _112
REMARK   49  A    between atoms: _117  and  _118
REMARK   50  A    between atoms: _120  and  _122
REMARK   51  A    between atoms: _122  and  _123
REMARK   52  A    between atoms: _126  and  _128
REMARK   53  A    between atoms: _128  and  _129
REMARK   54  A    between atoms: _128  and  _131
REMARK   55  A    between atoms: _131  and  _132
REMARK   56  A    between atoms: _132  and  _133
REMARK   57  A    between atoms: _135  and  _137
REMARK   58  A    between atoms: _137  and  _138
REMARK   59  A    between atoms: _137  and  _140
REMARK   60  A    between atoms: _140  and  _141
REMARK   61  A    between atoms: _141  and  _142
REMARK   62  A    between atoms: _142  and  _143
REMARK   63  A    between atoms: _143  and  _144
REMARK   64  A    between atoms: _148  and  _150
REMARK   65  A    between atoms: _150  and  _151
REMARK   66  A    between atoms: _150  and  _153
REMARK   67  A    between atoms: _153  and  _154
REMARK   68  A    between atoms: _157  and  _159
REMARK   69  A    between atoms: _159  and  _160
REMARK   70  A    between atoms: _159  and  _162
REMARK   71  A    between atoms: _162  and  _163
REMARK   72  A    between atoms: _166  and  _168
REMARK   73  A    between atoms: _168  and  _169
REMARK   74  A    between atoms: _168  and  _171
REMARK   75  A    between atoms: _171  and  _172
REMARK   76  A    between atoms: _175  and  _177
REMARK   77  A    between atoms: _177  and  _178
REMARK   78  A    between atoms: _177  and  _180
REMARK   79  A    between atoms: _180  and  _181
REMARK   80  A    between atoms: _181  and  _182
REMARK   81  A    between atoms: _182  and  _183
REMARK   82  A    between atoms: _183  and  _184
REMARK   83  A    between atoms: _188  and  _190
REMARK   84  A    between atoms: _190  and  _191
REMARK   85  A    between atoms: _190  and  _193
REMARK   86  A    between atoms: _196  and  _198
REMARK   87  A    between atoms: _198  and  _199
REMARK   88  A    between atoms: _198  and  _201
REMARK   89  A    between atoms: _201  and  _202
REMARK   90  A    between atoms: _205  and  _207
REMARK   91  A    between atoms: _207  and  _208
REMARK   92  A    between atoms: _207  and  _210
REMARK   93  A    between atoms: _210  and  _211
REMARK   94  A    between atoms: _211  and  _212
REMARK   95  A    between atoms: _212  and  _213
REMARK   96  A    between atoms: _213  and  _214
REMARK   97  A    between atoms: _218  and  _220
REMARK   98  A    between atoms: _220  and  _221
REMARK   99  A    between atoms: _220  and  _223
REMARK  100  A    between atoms: _223  and  _224
REMARK  101  A    between atoms: _224  and  _225
REMARK  102  A    between atoms: _228  and  _230
REMARK  103  A    between atoms: _230  and  _231
REMARK  104  A    between atoms: _230  and  _233
REMARK  105  A    between atoms: _233  and  _234
REMARK  106  A    between atoms: _237  and  _239
REMARK  107  A    between atoms: _239  and  _240
REMARK  108  A    between atoms: _239  and  _242
REMARK  109  A    between atoms: _242  and  _243
REMARK  110  A    between atoms: _243  and  _244
REMARK  111  A    between atoms: _247  and  _249
REMARK  112  A    between atoms: _249  and  _250
REMARK  113  A    between atoms: _249  and  _252
REMARK  114  A    between atoms: _252  and  _253
REMARK  115  A    between atoms: _258  and  _260
REMARK  116  A    between atoms: _260  and  _261
REMARK  117  A    between atoms: _260  and  _263
REMARK  118  A    between atoms: _263  and  _264
REMARK  119  A    between atoms: _267  and  _269
REMARK  120  A    between atoms: _269  and  _270
REMARK  121  A    between atoms: _269  and  _272
REMARK  122  A    between atoms: _272  and  _273
REMARK  123  A    between atoms: _276  and  _278
REMARK  124  A    between atoms: _278  and  _279
REMARK  125  A    between atoms: _278  and  _281
REMARK  126  A    between atoms: _281  and  _282
REMARK  127  A    between atoms: _287  and  _289
REMARK  128  A    between atoms: _289  and  _290
REMARK  129  A    between atoms: _289  and  _292
REMARK  130  A    between atoms: _292  and  _293
REMARK  131  A    between atoms: _293  and  _294
REMARK  132  A    between atoms: _297  and  _299
REMARK  133  A    between atoms: _299  and  _300
REMARK  134  A    between atoms: _299  and  _302
REMARK  135  A    between atoms: _302  and  _303
REMARK  136  A    between atoms: _303  and  _304
REMARK  137  A    between atoms: _304  and  _305
REMARK  138  A    between atoms: _305  and  _306
REMARK  139  A    between atoms: _310  and  _312
REMARK  140  A    between atoms: _312  and  _313
REMARK  141  A    between atoms: _312  and  _315
REMARK  142  A    between atoms: _315  and  _316
REMARK  143  A    between atoms: _319  and  _321
REMARK  144  A    between atoms: _321  and  _322
REMARK  145  A    between atoms: _321  and  _324
REMARK  146  A    between atoms: _327  and  _329
REMARK  147  A    between atoms: _329  and  _330
REMARK  148  A    between atoms: _329  and  _332
REMARK  149  A    between atoms: _332  and  _333
REMARK  150  A    between atoms: _333  and  _334
REMARK  151  A    between atoms: _334  and  _335
REMARK  152  A    between atoms: _335  and  _336
REMARK  153  A    between atoms: _340  and  _342
REMARK  154  A    between atoms: _342  and  _343
REMARK  155  A    between atoms: _342  and  _345
REMARK  156  A    between atoms: _345  and  _346
REMARK  157  A    between atoms: _349  and  _351
REMARK  158  A    between atoms: _351  and  _352
REMARK  159  A    between atoms: _351  and  _354
REMARK  160  A    between atoms: _354  and  _355
REMARK  161  A    between atoms: _355  and  _356
REMARK  162  A    between atoms: _358  and  _360
REMARK  163  A    between atoms: _360  and  _361
REMARK  164  A    between atoms: _360  and  _363
REMARK  165  A    between atoms: _363  and  _364
REMARK  166  A    between atoms: _364  and  _365
REMARK  167  A    between atoms: _367  and  _369
REMARK  168  A    between atoms: _369  and  _370
REMARK  169  A    between atoms: _369  and  _372
REMARK  170  A    between atoms: _372  and  _373
REMARK  171  A    between atoms: _373  and  _374
REMARK  172  A    between atoms: _377  and  _379
REMARK  173  A    between atoms: _379  and  _380
REMARK  174  A    between atoms: _379  and  _382
REMARK  175  A    between atoms: _382  and  _383
REMARK  176  A    between atoms: _388  and  _389
REMARK  177  A    between atoms: _391  and  _393
REMARK  178  A    between atoms: _393  and  _394
REMARK  179  A    between atoms: _398  and  _399
REMARK  180  A    between atoms: _404  and  _406
REMARK  181  A    between atoms: _406  and  _407
REMARK  182  A    between atoms: _409  and  _411
REMARK  183  A    between atoms: _411  and  _412
REMARK  184  A    between atoms: _414  and  _416
REMARK  185  A    between atoms: _416  and  _417
REMARK  186  A    between atoms: _416  and  _419
REMARK  187  A    between atoms: _419  and  _420
REMARK  188  A    between atoms: _420  and  _421
REMARK  189  A    between atoms: _424  and  _426
REMARK  190  A    between atoms: _426  and  _427
REMARK  191  A    between atoms: _426  and  _429
REMARK  192  A    between atoms: _429  and  _430
REMARK  193  A    between atoms: _430  and  _431
REMARK  194  A    between atoms: _433  and  _435
REMARK  195  A    between atoms: _435  and  _436
REMARK  196  A    between atoms: _435  and  _438
REMARK  197  A    between atoms: _438  and  _439
REMARK  198  A    between atoms: _445  and  _447
REMARK  199  A    between atoms: _447  and  _448
REMARK  200  A    between atoms: _447  and  _450
REMARK  201  A    between atoms: _450  and  _451
REMARK  202  A    between atoms: _456  and  _457
REMARK  203  A    between atoms: _459  and  _461
REMARK  204  A    between atoms: _461  and  _462
REMARK  205  A    between atoms: _461  and  _464
REMARK  206  A    between atoms: _464  and  _465
REMARK  207  A    between atoms: _468  and  _470
REMARK  208  A    between atoms: _470  and  _471
REMARK  209  A    between atoms: _470  and  _473
REMARK  210  A    between atoms: _473  and  _474
REMARK  211  A    between atoms: _474  and  _475
REMARK  212  A    between atoms: _475  and  _476
REMARK  213  A    between atoms: _476  and  _477
REMARK  214  A    between atoms: _482  and  _483
REMARK  215  A    between atoms: _488  and  _490
REMARK  216  A    between atoms: _490  and  _491
REMARK  217  A    between atoms: _490  and  _493
REMARK  218  A    between atoms: _493  and  _494
REMARK  219  A    between atoms: _494  and  _495
REMARK  220  A    between atoms: _498  and  _500
REMARK  221  A    between atoms: _500  and  _501
REMARK  222  A    between atoms: _500  and  _503
REMARK  223  A    between atoms: _503  and  _504
REMARK  224  A    between atoms: _509  and  _511
REMARK  225  A    between atoms: _511  and  _512
REMARK  226  A    between atoms: _511  and  _514
REMARK  227  A    between atoms: _514  and  _515
REMARK  228  A    between atoms: _518  and  _520
REMARK  229  A    between atoms: _520  and  _521
REMARK  230  A    between atoms: _520  and  _523
REMARK  231  A    between atoms: _523  and  _524
REMARK  232  A    between atoms: _524  and  _525
REMARK  233  A    between atoms: _527  and  _529
REMARK  234  A    between atoms: _529  and  _530
REMARK  235  A    between atoms: _529  and  _532
REMARK  236  A    between atoms: _532  and  _533
REMARK  237  A    between atoms: _536  and  _538
REMARK  238  A    between atoms: _538  and  _539
REMARK  239  A    between atoms: _538  and  _541
REMARK  240  A    between atoms: _541  and  _542
REMARK  241  A    between atoms: _542  and  _543
REMARK  242  A    between atoms: _543  and  _544
REMARK  243  A    between atoms: _544  and  _545
REMARK  244  A    between atoms: _549  and  _551
REMARK  245  A    between atoms: _551  and  _552
REMARK  246  A    between atoms: _551  and  _554
REMARK  247  A    between atoms: _557  and  _559
REMARK  248  A    between atoms: _559  and  _560
REMARK  249  A    between atoms: _559  and  _562
REMARK  250  A    between atoms: _562  and  _563
REMARK  251  A    between atoms: _566  and  _568
REMARK  252  A    between atoms: _568  and  _569
REMARK  253  A    between atoms: _568  and  _571
REMARK  254  A    between atoms: _571  and  _572
REMARK  255  A    between atoms: _575  and  _577
REMARK  256  A    between atoms: _577  and  _578
REMARK  257  A    between atoms: _577  and  _580
REMARK  258  A    between atoms: _580  and  _581
REMARK  259  A    between atoms: _587  and  _589
REMARK  260  A    between atoms: _589  and  _590
REMARK  261  A    between atoms: _592  and  _594
REMARK  262  A    between atoms: _594  and  _595
REMARK  263  A    between atoms: _594  and  _597
REMARK  264  A    between atoms: _597  and  _598
REMARK  265  A    between atoms: _601  and  _603
REMARK  266  A    between atoms: _603  and  _604
REMARK  267  A    between atoms: _607  and  _609
REMARK  268  A    between atoms: _609  and  _610
REMARK  269  A    between atoms: _609  and  _612
REMARK  270  A    between atoms: _614  and  _616
REMARK  271  A    between atoms: _616  and  _617
REMARK  272  A    between atoms: _619  and  _621
REMARK  273  A    between atoms: _621  and  _622
REMARK  274  A    between atoms: _621  and  _624
REMARK  275  A    between atoms: _624  and  _625
REMARK  276  A    between atoms: _631  and  _633
REMARK  277  A    between atoms: _633  and  _634
REMARK  278  A    between atoms: _633  and  _636
REMARK  279  A    between atoms: _636  and  _637
REMARK  280  A    between atoms: _642  and  _643
REMARK                            x       y       z     vdW  Elec       q    Type
REMARK                         _______ _______ _______ _____ _____    ______ ____
ROOT
ATOM      1  CA  LEU A   1       9.611  28.689   5.775  0.00  0.00    +0.133 C 
ENDROOT
BRANCH   1   2
ATOM      2  N   LEU A   1       9.500  27.557   6.694  0.00  0.00    -0.239 NA
ATOM      3  H   LEU A   1       9.970  27.592   7.621  0.00  0.00    +0.142 HD
ENDBRANCH   1   2
BRANCH   1   4
ATOM      4  C   LEU A   1      10.266  28.286   4.457  0.00  0.00    +0.224 C 
ATOM      5  O   LEU A   1       9.800  28.684   3.394  0.00  0.00    -0.287 OA
ENDBRANCH   1   4
BRANCH   1   6
ATOM      6  CB  LEU A   1      10.356  29.872   6.409  0.00  0.00    +0.025 C 
BRANCH   6   7
ATOM      7  CG  LEU A   1       9.644  31.222   6.520  0.00  0.00    +0.002 C 
ATOM      8  CD2 LEU A   1      10.678  32.328   6.415  0.00  0.00    +0.000 C 
ATOM      9  CD1 LEU A   1       8.522  31.485   5.541  0.00  0.00    +0.000 C 
ENDBRANCH   6   7
ENDBRANCH   1   6
TORSDOF 4
REMARK  Name = ../refined-set-2016/1xh9/1xh9_pocket.pdb
REMARK  280 active torsions:
REMARK  status: ('A' for Active; 'I' for Inactive)
REMARK    1  A    between atoms: _1  and  _3
REMARK    2  A    between atoms: _3  and  _4
REMARK    3  A    between atoms: _3  and  _6
REMARK    4  A    between atoms: _6  and  _7
REMARK    5  A    between atoms: _10  and  _12
REMARK    6  A    between atoms: _12  and  _13
REMARK    7  A    between atoms: _12  and  _15
REMARK    8  A    between atoms: _15  and  _16
REMARK    9  A    between atoms: _19  and  _21
REMARK   10  A    between atoms: _21  and  _22
REMARK   11  A    between atoms: _24  and  _26
REMARK   12  A    between atoms: _26  and  _27
REMARK   13  A    between atoms: _26  and  _29
REMARK   14  A    between atoms: _29  and  _30
REMARK   15  A    between atoms: _33  and  _35
REMARK   16  A    between atoms: _35  and  _36
REMARK   17  A    between atoms: _38  and  _40
REMARK   18  A    between atoms: _40  and  _41
REMARK   19  A    between atoms: _40  and  _43
REMARK   20  A    between atoms: _43  and  _44
REMARK   21  A    between atoms: _46  and  _48
REMARK   22  A    between atoms: _48  and  _49
REMARK   23  A    between atoms: _48  and  _51
REMARK   24  A    between atoms: _51  and  _52
REMARK   25  A    between atoms: _58  and  _60
REMARK   26  A    between atoms: _60  and  _61
REMARK   27  A    between atoms: _63  and  _65
REMARK   28  A    between atoms: _65  and  _66
REMARK   29  A    between atoms: _65  and  _68
REMARK   30  A    between atoms: _68  and  _69
REMARK   31  A    between atoms: _69  and  _70
REMARK   32  A    between atoms: _70  and  _71
REMARK   33  A    between atoms: _80  and  _82
REMARK   34  A    between atoms: _82  and  _83
REMARK   35  A    between atoms: _82  and  _85
REMARK   36  A    between atoms: _88  and  _90
REMARK   37  A    between atoms: _90  and  _91
REMARK   38  A    between atoms: _90  and  _93
REMARK   39  A    between atoms: _93  and  _94
REMARK   40  A    between atoms: _94  and  _95
REMARK   41  A    between atoms: _97  and  _99
REMARK   42  A    between atoms: _99  and  _100
REMARK   43  A    between atoms: _99  and  _102
REMARK   44  A    between atoms: _102  and  _103
REMARK   45  A    between atoms: _106  and  _108
REMARK   46  A    between atoms: _108  and  _109
REMARK   47  A    between atoms: _108  and  _111
REMARK   48  A    between atoms: _111  and  _112
REMARK   49  A    between atoms: _117  and  _118
REMARK   50  A    between atoms: _120  and  _122
REMARK   51  A    between atoms: _122  and  _123
REMARK   52  A    between atoms: _126  and  _128
REMARK   53  A    between atoms: _128  and  _129
REMARK   54  A    between atoms: _128  and  _131
REMARK   55  A    between atoms: _131  and  _132
REMARK   56  A    between atoms: _132  and  _133
REMARK   57  A    between atoms: _135  and  _137
REMARK   58  A    between atoms: _137  and  _138
REMARK   59  A    between atoms: _137  and  _140
REMARK   60  A    between atoms: _140  and  _141
REMARK   61  A    between atoms: _141  and  _142
REMARK   62  A    between atoms: _142  and  _143
REMARK   63  A    between atoms: _143  and  _144
REMARK   64  A    between atoms: _148  and  _150
REMARK   65  A    between atoms: _150  and  _151
REMARK   66  A    between atoms: _150  and  _153
REMARK   67  A    between atoms: _153  and  _154
REMARK   68  A    between atoms: _157  and  _159
REMARK   69  A    between atoms: _159  and  _160
REMARK   70  A    between atoms: _159  and  _162
REMARK   71  A    between atoms: _162  and  _163
REMARK   72  A    between atoms: _166  and  _168
REMARK   73  A    between atoms: _168  and  _169
REMARK   74  A    between atoms: _168  and  _171
REMARK   75  A    between atoms: _171  and  _172
REMARK   76  A    between atoms: _175  and  _177
REMARK   77  A    between atoms: _177  and  _178
REMARK   78  A    between atoms: _177  and  _180
REMARK   79  A    between atoms: _180  and  _181
REMARK   80  A    between atoms: _181  and  _182
REMARK   81  A    between atoms: _182  and  _183
REMARK   82  A    between atoms: _183  and  _184
REMARK   83  A    between atoms: _188  and  _190
REMARK   84  A    between atoms: _190  and  _191
REMARK   85  A    between atoms: _190  and  _193
REMARK   86  A    between atoms: _196  and  _198
REMARK   87  A    between atoms: _198  and  _199
REMARK   88  A    between atoms: _198  and  _201
REMARK   89  A    between atoms: _201  and  _202
REMARK   90  A    between atoms: _205  and  _207
REMARK   91  A    between atoms: _207  and  _208
REMARK   92  A    between atoms: _207  and  _210
REMARK   93  A    between atoms: _210  and  _211
REMARK   94  A    between atoms: _211  and  _212
REMARK   95  A    between atoms: _212  and  _213
REMARK   96  A    between atoms: _213  and  _214
REMARK   97  A    between atoms: _218  and  _220
REMARK   98  A    between atoms: _220  and  _221
REMARK   99  A    between atoms: _220  and  _223
REMARK  100  A    between atoms: _223  and  _224
REMARK  101  A    between atoms: _224  and  _225
REMARK  102  A    between atoms: _228  and  _230
REMARK  103  A    between atoms: _230  and  _231
REMARK  104  A    between atoms: _230  and  _233
REMARK  105  A    between atoms: _233  and  _234
REMARK  106  A    between atoms: _237  and  _239
REMARK  107  A    between atoms: _239  and  _240
REMARK  108  A    between atoms: _239  and  _242
REMARK  109  A    between atoms: _242  and  _243
REMARK  110  A    between atoms: _243  and  _244
REMARK  111  A    between atoms: _247  and  _249
REMARK  112  A    between atoms: _249  and  _250
REMARK  113  A    between atoms: _249  and  _252
REMARK  114  A    between atoms: _252  and  _253
REMARK  115  A    between atoms: _258  and  _260
REMARK  116  A    between atoms: _260  and  _261
REMARK  117  A    between atoms: _260  and  _263
REMARK  118  A    between atoms: _263  and  _264
REMARK  119  A    between atoms: _267  and  _269
REMARK  120  A    between atoms: _269  and  _270
REMARK  121  A    between atoms: _269  and  _272
REMARK  122  A    between atoms: _272  and  _273
REMARK  123  A    between atoms: _276  and  _278
REMARK  124  A    between atoms: _278  and  _279
REMARK  125  A    between atoms: _278  and  _281
REMARK  126  A    between atoms: _281  and  _282
REMARK  127  A    between atoms: _287  and  _289
REMARK  128  A    between atoms: _289  and  _290
REMARK  129  A    between atoms: _289  and  _292
REMARK  130  A    between atoms: _292  and  _293
REMARK  131  A    between atoms: _293  and  _294
REMARK  132  A    between atoms: _297  and  _299
REMARK  133  A    between atoms: _299  and  _300
REMARK  134  A    between atoms: _299  and  _302
REMARK  135  A    between atoms: _302  and  _303
REMARK  136  A    between atoms: _303  and  _304
REMARK  137  A    between atoms: _304  and  _305
REMARK  138  A    between atoms: _305  and  _306
REMARK  139  A    between atoms: _310  and  _312
REMARK  140  A    between atoms: _312  and  _313
REMARK  141  A    between atoms: _312  and  _315
REMARK  142  A    between atoms: _315  and  _316
REMARK  143  A    between atoms: _319  and  _321
REMARK  144  A    between atoms: _321  and  _322
REMARK  145  A    between atoms: _321  and  _324
REMARK  146  A    between atoms: _327  and  _329
REMARK  147  A    between atoms: _329  and  _330
REMARK  148  A    between atoms: _329  and  _332
REMARK  149  A    between atoms: _332  and  _333
REMARK  150  A    between atoms: _333  and  _334
REMARK  151  A    between atoms: _334  and  _335
REMARK  152  A    between atoms: _335  and  _336
REMARK  153  A    between atoms: _340  and  _342
REMARK  154  A    between atoms: _342  and  _343
REMARK  155  A    between atoms: _342  and  _345
REMARK  156  A    between atoms: _345  and  _346
REMARK  157  A    between atoms: _349  and  _351
REMARK  158  A    between atoms: _351  and  _352
REMARK  159  A    between atoms: _351  and  _354
REMARK  160  A    between atoms: _354  and  _355
REMARK  161  A    between atoms: _355  and  _356
REMARK  162  A    between atoms: _358  and  _360
REMARK  163  A    between atoms: _360  and  _361
REMARK  164  A    between atoms: _360  and  _363
REMARK  165  A    between atoms: _363  and  _364
REMARK  166  A    between atoms: _364  and  _365
REMARK  167  A    between atoms: _367  and  _369
REMARK  168  A    between atoms: _369  and  _370
REMARK  169  A    between atoms: _369  and  _372
REMARK  170  A    between atoms: _372  and  _373
REMARK  171  A    between atoms: _373  and  _374
REMARK  172  A    between atoms: _377  and  _379
REMARK  173  A    between atoms: _379  and  _380
REMARK  174  A    between atoms: _379  and  _382
REMARK  175  A    between atoms: _382  and  _383
REMARK  176  A    between atoms: _388  and  _389
REMARK  177  A    between atoms: _391  and  _393
REMARK  178  A    between atoms: _393  and  _394
REMARK  179  A    between atoms: _398  and  _399
REMARK  180  A    between atoms: _404  and  _406
REMARK  181  A    between atoms: _406  and  _407
REMARK  182  A    between atoms: _409  and  _411
REMARK  183  A    between atoms: _411  and  _412
REMARK  184  A    between atoms: _414  and  _416
REMARK  185  A    between atoms: _416  and  _417
REMARK  186  A    between atoms: _416  and  _419
REMARK  187  A    between atoms: _419  and  _420
REMARK  188  A    between atoms: _420  and  _421
REMARK  189  A    between atoms: _424  and  _426
REMARK  190  A    between atoms: _426  and  _427
REMARK  191  A    between atoms: _426  and  _429
REMARK  192  A    between atoms: _429  and  _430
REMARK  193  A    between atoms: _430  and  _431
REMARK  194  A    between atoms: _433  and  _435
REMARK  195  A    between atoms: _435  and  _436
REMARK  196  A    between atoms: _435  and  _438
REMARK  197  A    between atoms: _438  and  _439
REMARK  198  A    between atoms: _445  and  _447
REMARK  199  A    between atoms: _447  and  _448
REMARK  200  A    between atoms: _447  and  _450
REMARK  201  A    between atoms: _450  and  _451
REMARK  202  A    between atoms: _456  and  _457
REMARK  203  A    between atoms: _459  and  _461
REMARK  204  A    between atoms: _461  and  _462
REMARK  205  A    between atoms: _461  and  _464
REMARK  206  A    between atoms: _464  and  _465
REMARK  207  A    between atoms: _468  and  _470
REMARK  208  A    between atoms: _470  and  _471
REMARK  209  A    between atoms: _470  and  _473
REMARK  210  A    between atoms: _473  and  _474
REMARK  211  A    between atoms: _474  and  _475
REMARK  212  A    between atoms: _475  and  _476
REMARK  213  A    between atoms: _476  and  _477
REMARK  214  A    between atoms: _482  and  _483
REMARK  215  A    between atoms: _488  and  _490
REMARK  216  A    between atoms: _490  and  _491
REMARK  217  A    between atoms: _490  and  _493
REMARK  218  A    between atoms: _493  and  _494
REMARK  219  A    between atoms: _494  and  _495
REMARK  220  A    between atoms: _498  and  _500
REMARK  221  A    between atoms: _500  and  _501
REMARK  222  A    between atoms: _500  and  _503
REMARK  223  A    between atoms: _503  and  _504
REMARK  224  A    between atoms: _509  and  _511
REMARK  225  A    between atoms: _511  and  _512
REMARK  226  A    between atoms: _511  and  _514
REMARK  227  A    between atoms: _514  and  _515
REMARK  228  A    between atoms: _518  and  _520
REMARK  229  A    between atoms: _520  and  _521
REMARK  230  A    between atoms: _520  and  _523
REMARK  231  A    between atoms: _523  and  _524
REMARK  232  A    between atoms: _524  and  _525
REMARK  233  A    between atoms: _527  and  _529
REMARK  234  A    between atoms: _529  and  _530
REMARK  235  A    between atoms: _529  and  _532
REMARK  236  A    between atoms: _532  and  _533
REMARK  237  A    between atoms: _536  and  _538
REMARK  238  A    between atoms: _538  and  _539
REMARK  239  A    between atoms: _538  and  _541
REMARK  240  A    between atoms: _541  and  _542
REMARK  241  A    between atoms: _542  and  _543
REMARK  242  A    between atoms: _543  and  _544
REMARK  243  A    between atoms: _544  and  _545
REMARK  244  A    between atoms: _549  and  _551
REMARK  245  A    between atoms: _551  and  _552
REMARK  246  A    between atoms: _551  and  _554
REMARK  247  A    between atoms: _557  and  _559
REMARK  248  A    between atoms: _559  and  _560
REMARK  249  A    between atoms: _559  and  _562
REMARK  250  A    between atoms: _562  and  _563
REMARK  251  A    between atoms: _566  and  _568
REMARK  252  A    between atoms: _568  and  _569
REMARK  253  A    between atoms: _568  and  _571
REMARK  254  A    between atoms: _571  and  _572
REMARK  255  A    between atoms: _575  and  _577
REMARK  256  A    between atoms: _577  and  _578
REMARK  257  A    between atoms: _577  and  _580
REMARK  258  A    between atoms: _580  and  _581
REMARK  259  A    between atoms: _587  and  _589
REMARK  260  A    between atoms: _589  and  _590
REMARK  261  A    between atoms: _592  and  _594
REMARK  262  A    between atoms: _594  and  _595
REMARK  263  A    between atoms: _594  and  _597
REMARK  264  A    between atoms: _597  and  _598
REMARK  265  A    between atoms: _601  and  _603
REMARK  266  A    between atoms: _603  and  _604
REMARK  267  A    between atoms: _607  and  _609
REMARK  268  A    between atoms: _609  and  _610
REMARK  269  A    between atoms: _609  and  _612
REMARK  270  A    between atoms: _614  and  _616
REMARK  271  A    between atoms: _616  and  _617
REMARK  272  A    between atoms: _619  and  _621
REMARK  273  A    between atoms: _621  and  _622
REMARK  274  A    between atoms: _621  and  _624
REMARK  275  A    between atoms: _624  and  _625
REMARK  276  A    between atoms: _631  and  _633
REMARK  277  A    between atoms: _633  and  _634
REMARK  278  A    between atoms: _633  and  _636
REMARK  279  A    between atoms: _636  and  _637
REMARK  280  A    between atoms: _642  and  _643
REMARK                            x       y       z     vdW  Elec       q    Type
REMARK                         _______ _______ _______ _____ _____    ______ ____
ROOT
ATOM      1  CA  LYS A   2       9.559  34.095   0.672  0.00  0.00    +0.137 C 
ENDROOT
BRANCH   1   4
ATOM      2  C   VAL A   1       8.012  34.916   2.339  0.00  0.00    +0.238 C 
ATOM      3  O   VAL A   1       7.934  33.814   2.855  0.00  0.00    -0.274 OA
ATOM      4  N   LYS A   2       8.786  35.149   1.294  0.00  0.00    -0.298 N 
ATOM      5  H   LYS A   2       8.841  36.113   0.909  0.00  0.00    +0.150 HD
BRANCH   2   6
ATOM      6  CA  VAL A   1       7.238  36.106   2.906  0.00  0.00    +0.145 C 
BRANCH   6   7
ATOM      7  CB  VAL A   1       8.029  36.743   4.087  0.00  0.00    +0.025 C 
ATOM      8  CG2 VAL A   1       8.307  35.755   5.212  0.00  0.00    +0.002 C 
ATOM      9  CG1 VAL A   1       7.332  38.004   4.597  0.00  0.00    +0.002 C 
ENDBRANCH   6   7
BRANCH   6  10
ATOM     10  N   VAL A   1       5.895  35.683   3.253  0.00  0.00    -0.238 NA
ATOM     11  H   VAL A   1       5.544  35.799   4.225  0.00  0.00    +0.142 HD
ENDBRANCH   6  10
ENDBRANCH   2   6
ENDBRANCH   1   4
BRANCH   1  12
ATOM     12  C   LYS A   2      10.942  34.019   1.306  0.00  0.00    +0.227 C 
ATOM     13  O   LYS A   2      11.629  35.041   1.462  0.00  0.00    -0.286 OA
ENDBRANCH   1  12
BRANCH   1  14
ATOM     14  CB  LYS A   2       9.681  34.384  -0.826  0.00  0.00    +0.028 C 
BRANCH  14  15
ATOM     15  CG  LYS A   2      10.357  33.300  -1.616  0.00  0.00    -0.000 C 
BRANCH  15  16
ATOM     16  CD  LYS A   2      10.416  33.694  -3.084  0.00  0.00    -0.024 C 
BRANCH  16  17
ATOM     17  CE  LYS A   2      10.875  32.534  -3.969  0.00  0.00    -0.086 C 
BRANCH  17  18
ATOM     18  NZ  LYS A   2      12.194  32.013  -3.532  0.00  0.00    +0.380 N 
ATOM     19  HZ1 LYS A   2      12.124  31.675  -2.551  0.00  0.00    -0.089 HD
ATOM     20  HZ2 LYS A   2      12.901  32.773  -3.588  0.00  0.00    -0.089 HD
ATOM     21  HZ3 LYS A   2      12.478  31.227  -4.152  0.00  0.00    -0.089 HD
ENDBRANCH  17  18
ENDBRANCH  16  17
ENDBRANCH  15  16
ENDBRANCH  14  15
ENDBRANCH   1  14
TORSDOF 10
REMARK  Name = ../refined-set-2016/1xh9/1xh9_pocket.pdb
REMARK  280 active torsions:
REMARK  status: ('A' for Active; 'I' for Inactive)
REMARK    1  A    between atoms: _1  and  _3
REMARK    2  A    between atoms: _3  and  _4
REMARK    3  A    between atoms: _3  and  _6
REMARK    4  A    between atoms: _6  and  _7
REMARK    5  A    between atoms: _10  and  _12
REMARK    6  A    between atoms: _12  and  _13
REMARK    7  A    between atoms: _12  and  _15
REMARK    8  A    between atoms: _15  and  _16
REMARK    9  A    between atoms: _19  and  _21
REMARK   10  A    between atoms: _21  and  _22
REMARK   11  A    between atoms: _24  and  _26
REMARK   12  A    between atoms: _26  and  _27
REMARK   13  A    between atoms: _26  and  _29
REMARK   14  A    between atoms: _29  and  _30
REMARK   15  A    between atoms: _33  and  _35
REMARK   16  A    between atoms: _35  and  _36
REMARK   17  A    between atoms: _38  and  _40
REMARK   18  A    between atoms: _40  and  _41
REMARK   19  A    between atoms: _40  and  _43
REMARK   20  A    between atoms: _43  and  _44
REMARK   21  A    between atoms: _46  and  _48
REMARK   22  A    between atoms: _48  and  _49
REMARK   23  A    between atoms: _48  and  _51
REMARK   24  A    between atoms: _51  and  _52
REMARK   25  A    between atoms: _58  and  _60
REMARK   26  A    between atoms: _60  and  _61
REMARK   27  A    between atoms: _63  and  _65
REMARK   28  A    between atoms: _65  and  _66
REMARK   29  A    between atoms: _65  and  _68
REMARK   30  A    between atoms: _68  and  _69
REMARK   31  A    between atoms: _69  and  _70
REMARK   32  A    between atoms: _70  and  _71
REMARK   33  A    between atoms: _80  and  _82
REMARK   34  A    between atoms: _82  and  _83
REMARK   35  A    between atoms: _82  and  _85
REMARK   36  A    between atoms: _88  and  _90
REMARK   37  A    between atoms: _90  and  _91
REMARK   38  A    between atoms: _90  and  _93
REMARK   39  A    between atoms: _93  and  _94
REMARK   40  A    between atoms: _94  and  _95
REMARK   41  A    between atoms: _97  and  _99
REMARK   42  A    between atoms: _99  and  _100
REMARK   43  A    between atoms: _99  and  _102
REMARK   44  A    between atoms: _102  and  _103
REMARK   45  A    between atoms: _106  and  _108
REMARK   46  A    between atoms: _108  and  _109
REMARK   47  A    between atoms: _108  and  _111
REMARK   48  A    between atoms: _111  and  _112
REMARK   49  A    between atoms: _117  and  _118
REMARK   50  A    between atoms: _120  and  _122
REMARK   51  A    between atoms: _122  and  _123
REMARK   52  A    between atoms: _126  and  _128
REMARK   53  A    between atoms: _128  and  _129
REMARK   54  A    between atoms: _128  and  _131
REMARK   55  A    between atoms: _131  and  _132
REMARK   56  A    between atoms: _132  and  _133
REMARK   57  A    between atoms: _135  and  _137
REMARK   58  A    between atoms: _137  and  _138
REMARK   59  A    between atoms: _137  and  _140
REMARK   60  A    between atoms: _140  and  _141
REMARK   61  A    between atoms: _141  and  _142
REMARK   62  A    between atoms: _142  and  _143
REMARK   63  A    between atoms: _143  and  _144
REMARK   64  A    between atoms: _148  and  _150
REMARK   65  A    between atoms: _150  and  _151
REMARK   66  A    between atoms: _150  and  _153
REMARK   67  A    between atoms: _153  and  _154
REMARK   68  A    between atoms: _157  and  _159
REMARK   69  A    between atoms: _159  and  _160
REMARK   70  A    between atoms: _159  and  _162
REMARK   71  A    between atoms: _162  and  _163
REMARK   72  A    between atoms: _166  and  _168
REMARK   73  A    between atoms: _168  and  _169
REMARK   74  A    between atoms: _168  and  _171
REMARK   75  A    between atoms: _171  and  _172
REMARK   76  A    between atoms: _175  and  _177
REMARK   77  A    between atoms: _177  and  _178
REMARK   78  A    between atoms: _177  and  _180
REMARK   79  A    between atoms: _180  and  _181
REMARK   80  A    between atoms: _181  and  _182
REMARK   81  A    between atoms: _182  and  _183
REMARK   82  A    between atoms: _183  and  _184
REMARK   83  A    between atoms: _188  and  _190
REMARK   84  A    between atoms: _190  and  _191
REMARK   85  A    between atoms: _190  and  _193
REMARK   86  A    between atoms: _196  and  _198
REMARK   87  A    between atoms: _198  and  _199
REMARK   88  A    between atoms: _198  and  _201
REMARK   89  A    between atoms: _201  and  _202
REMARK   90  A    between atoms: _205  and  _207
REMARK   91  A    between atoms: _207  and  _208
REMARK   92  A    between atoms: _207  and  _210
REMARK   93  A    between atoms: _210  and  _211
REMARK   94  A    between atoms: _211  and  _212
REMARK   95  A    between atoms: _212  and  _213
REMARK   96  A    between atoms: _213  and  _214
REMARK   97  A    between atoms: _218  and  _220
REMARK   98  A    between atoms: _220  and  _221
REMARK   99  A    between atoms: _220  and  _223
REMARK  100  A    between atoms: _223  and  _224
REMARK  101  A    between atoms: _224  and  _225
REMARK  102  A    between atoms: _228  and  _230
REMARK  103  A    between atoms: _230  and  _231
REMARK  104  A    between atoms: _230  and  _233
REMARK  105  A    between atoms: _233  and  _234
REMARK  106  A    between atoms: _237  and  _239
REMARK  107  A    between atoms: _239  and  _240
REMARK  108  A    between atoms: _239  and  _242
REMARK  109  A    between atoms: _242  and  _243
REMARK  110  A    between atoms: _243  and  _244
REMARK  111  A    between atoms: _247  and  _249
REMARK  112  A    between atoms: _249  and  _250
REMARK  113  A    between atoms: _249  and  _252
REMARK  114  A    between atoms: _252  and  _253
REMARK  115  A    between atoms: _258  and  _260
REMARK  116  A    between atoms: _260  and  _261
REMARK  117  A    between atoms: _260  and  _263
REMARK  118  A    between atoms: _263  and  _264
REMARK  119  A    between atoms: _267  and  _269
REMARK  120  A    between atoms: _269  and  _270
REMARK  121  A    between atoms: _269  and  _272
REMARK  122  A    between atoms: _272  and  _273
REMARK  123  A    between atoms: _276  and  _278
REMARK  124  A    between atoms: _278  and  _279
REMARK  125  A    between atoms: _278  and  _281
REMARK  126  A    between atoms: _281  and  _282
REMARK  127  A    between atoms: _287  and  _289
REMARK  128  A    between atoms: _289  and  _290
REMARK  129  A    between atoms: _289  and  _292
REMARK  130  A    between atoms: _292  and  _293
REMARK  131  A    between atoms: _293  and  _294
REMARK  132  A    between atoms: _297  and  _299
REMARK  133  A    between atoms: _299  and  _300
REMARK  134  A    between atoms: _299  and  _302
REMARK  135  A    between atoms: _302  and  _303
REMARK  136  A    between atoms: _303  and  _304
REMARK  137  A    between atoms: _304  and  _305
REMARK  138  A    between atoms: _305  and  _306
REMARK  139  A    between atoms: _310  and  _312
REMARK  140  A    between atoms: _312  and  _313
REMARK  141  A    between atoms: _312  and  _315
REMARK  142  A    between atoms: _315  and  _316
REMARK  143  A    between atoms: _319  and  _321
REMARK  144  A    between atoms: _321  and  _322
REMARK  145  A    between atoms: _321  and  _324
REMARK  146  A    between atoms: _327  and  _329
REMARK  147  A    between atoms: _329  and  _330
REMARK  148  A    between atoms: _329  and  _332
REMARK  149  A    between atoms: _332  and  _333
REMARK  150  A    between atoms: _333  and  _334
REMARK  151  A    between atoms: _334  and  _335
REMARK  152  A    between atoms: _335  and  _336
REMARK  153  A    between atoms: _340  and  _342
REMARK  154  A    between atoms: _342  and  _343
REMARK  155  A    between atoms: _342  and  _345
REMARK  156  A    between atoms: _345  and  _346
REMARK  157  A    between atoms: _349  and  _351
REMARK  158  A    between atoms: _351  and  _352
REMARK  159  A    between atoms: _351  and  _354
REMARK  160  A    between atoms: _354  and  _355
REMARK  161  A    between atoms: _355  and  _356
REMARK  162  A    between atoms: _358  and  _360
REMARK  163  A    between atoms: _360  and  _361
REMARK  164  A    between atoms: _360  and  _363
REMARK  165  A    between atoms: _363  and  _364
REMARK  166  A    between atoms: _364  and  _365
REMARK  167  A    between atoms: _367  and  _369
REMARK  168  A    between atoms: _369  and  _370
REMARK  169  A    between atoms: _369  and  _372
REMARK  170  A    between atoms: _372  and  _373
REMARK  171  A    between atoms: _373  and  _374
REMARK  172  A    between atoms: _377  and  _379
REMARK  173  A    between atoms: _379  and  _380
REMARK  174  A    between atoms: _379  and  _382
REMARK  175  A    between atoms: _382  and  _383
REMARK  176  A    between atoms: _388  and  _389
REMARK  177  A    between atoms: _391  and  _393
REMARK  178  A    between atoms: _393  and  _394
REMARK  179  A    between atoms: _398  and  _399
REMARK  180  A    between atoms: _404  and  _406
REMARK  181  A    between atoms: _406  and  _407
REMARK  182  A    between atoms: _409  and  _411
REMARK  183  A    between atoms: _411  and  _412
REMARK  184  A    between atoms: _414  and  _416
REMARK  185  A    between atoms: _416  and  _417
REMARK  186  A    between atoms: _416  and  _419
REMARK  187  A    between atoms: _419  and  _420
REMARK  188  A    between atoms: _420  and  _421
REMARK  189  A    between atoms: _424  and  _426
REMARK  190  A    between atoms: _426  and  _427
REMARK  191  A    between atoms: _426  and  _429
REMARK  192  A    between atoms: _429  and  _430
REMARK  193  A    between atoms: _430  and  _431
REMARK  194  A    between atoms: _433  and  _435
REMARK  195  A    between atoms: _435  and  _436
REMARK  196  A    between atoms: _435  and  _438
REMARK  197  A    between atoms: _438  and  _439
REMARK  198  A    between atoms: _445  and  _447
REMARK  199  A    between atoms: _447  and  _448
REMARK  200  A    between atoms: _447  and  _450
REMARK  201  A    between atoms: _450  and  _451
REMARK  202  A    between atoms: _456  and  _457
REMARK  203  A    between atoms: _459  and  _461
REMARK  204  A    between atoms: _461  and  _462
REMARK  205  A    between atoms: _461  and  _464
REMARK  206  A    between atoms: _464  and  _465
REMARK  207  A    between atoms: _468  and  _470
REMARK  208  A    between atoms: _470  and  _471
REMARK  209  A    between atoms: _470  and  _473
REMARK  210  A    between atoms: _473  and  _474
REMARK  211  A    between atoms: _474  and  _475
REMARK  212  A    between atoms: _475  and  _476
REMARK  213  A    between atoms: _476  and  _477
REMARK  214  A    between atoms: _482  and  _483
REMARK  215  A    between atoms: _488  and  _490
REMARK  216  A    between atoms: _490  and  _491
REMARK  217  A    between atoms: _490  and  _493
REMARK  218  A    between atoms: _493  and  _494
REMARK  219  A    between atoms: _494  and  _495
REMARK  220  A    between atoms: _498  and  _500
REMARK  221  A    between atoms: _500  and  _501
REMARK  222  A    between atoms: _500  and  _503
REMARK  223  A    between atoms: _503  and  _504
REMARK  224  A    between atoms: _509  and  _511
REMARK  225  A    between atoms: _511  and  _512
REMARK  226  A    between atoms: _511  and  _514
REMARK  227  A    between atoms: _514  and  _515
REMARK  228  A    between atoms: _518  and  _520
REMARK  229  A    between atoms: _520  and  _521
REMARK  230  A    between atoms: _520  and  _523
REMARK  231  A    between atoms: _523  and  _524
REMARK  232  A    between atoms: _524  and  _525
REMARK  233  A    between atoms: _527  and  _529
REMARK  234  A    between atoms: _529  and  _530
REMARK  235  A    between atoms: _529  and  _532
REMARK  236  A    between atoms: _532  and  _533
REMARK  237  A    between atoms: _536  and  _538
REMARK  238  A    between atoms: _538  and  _539
REMARK  239  A    between atoms: _538  and  _541
REMARK  240  A    between atoms: _541  and  _542
REMARK  241  A    between atoms: _542  and  _543
REMARK  242  A    between atoms: _543  and  _544
REMARK  243  A    between atoms: _544  and  _545
REMARK  244  A    between atoms: _549  and  _551
REMARK  245  A    between atoms: _551  and  _552
REMARK  246  A    between atoms: _551  and  _554
REMARK  247  A    between atoms: _557  and  _559
REMARK  248  A    between atoms: _559  and  _560
REMARK  249  A    between atoms: _559  and  _562
REMARK  250  A    between atoms: _562  and  _563
REMARK  251  A    between atoms: _566  and  _568
REMARK  252  A    between atoms: _568  and  _569
REMARK  253  A    between atoms: _568  and  _571
REMARK  254  A    between atoms: _571  and  _572
REMARK  255  A    between atoms: _575  and  _577
REMARK  256  A    between atoms: _577  and  _578
REMARK  257  A    between atoms: _577  and  _580
REMARK  258  A    between atoms: _580  and  _581
REMARK  259  A    between atoms: _587  and  _589
REMARK  260  A    between atoms: _589  and  _590
REMARK  261  A    between atoms: _592  and  _594
REMARK  262  A    between atoms: _594  and  _595
REMARK  263  A    between atoms: _594  and  _597
REMARK  264  A    between atoms: _597  and  _598
REMARK  265  A    between atoms: _601  and  _603
REMARK  266  A    between atoms: _603  and  _604
REMARK  267  A    between atoms: _607  and  _609
REMARK  268  A    between atoms: _609  and  _610
REMARK  269  A    between atoms: _609  and  _612
REMARK  270  A    between atoms: _614  and  _616
REMARK  271  A    between atoms: _616  and  _617
REMARK  272  A    between atoms: _619  and  _621
REMARK  273  A    between atoms: _621  and  _622
REMARK  274  A    between atoms: _621  and  _624
REMARK  275  A    between atoms: _624  and  _625
REMARK  276  A    between atoms: _631  and  _633
REMARK  277  A    between atoms: _633  and  _634
REMARK  278  A    between atoms: _633  and  _636
REMARK  279  A    between atoms: _636  and  _637
REMARK  280  A    between atoms: _642  and  _643
REMARK                            x       y       z     vdW  Elec       q    Type
REMARK                         _______ _______ _______ _____ _____    ______ ____
ROOT
ATOM      1  CA  LEU A   1      21.515  31.483  12.313  0.00  0.00    +0.133 C 
ENDROOT
BRANCH   1   2
ATOM      2  N   LEU A   1      22.376  32.003  13.350  0.00  0.00    -0.239 NA
ATOM      3  H   LEU A   1      21.918  32.502  14.139  0.00  0.00    +0.142 HD
ENDBRANCH   1   2
BRANCH   1   4
ATOM      4  C   LEU A   1      21.024  32.661  11.474  0.00  0.00    +0.224 C 
ATOM      5  O   LEU A   1      20.720  33.721  12.009  0.00  0.00    -0.287 OA
ENDBRANCH   1   4
BRANCH   1   6
ATOM      6  CB  LEU A   1      20.303  30.794  12.944  0.00  0.00    +0.025 C 
BRANCH   6   7
ATOM      7  CG  LEU A   1      20.580  29.742  14.010  0.00  0.00    +0.002 C 
ATOM      8  CD2 LEU A   1      19.234  29.287  14.563  0.00  0.00    +0.000 C 
ATOM      9  CD1 LEU A   1      21.372  28.574  13.423  0.00  0.00    +0.000 C 
ENDBRANCH   6   7
ENDBRANCH   1   6
TORSDOF 4
REMARK  Name = ../refined-set-2016/1xh9/1xh9_pocket.pdb
REMARK  280 active torsions:
REMARK  status: ('A' for Active; 'I' for Inactive)
REMARK    1  A    between atoms: _1  and  _3
REMARK    2  A    between atoms: _3  and  _4
REMARK    3  A    between atoms: _3  and  _6
REMARK    4  A    between atoms: _6  and  _7
REMARK    5  A    between atoms: _10  and  _12
REMARK    6  A    between atoms: _12  and  _13
REMARK    7  A    between atoms: _12  and  _15
REMARK    8  A    between atoms: _15  and  _16
REMARK    9  A    between atoms: _19  and  _21
REMARK   10  A    between atoms: _21  and  _22
REMARK   11  A    between atoms: _24  and  _26
REMARK   12  A    between atoms: _26  and  _27
REMARK   13  A    between atoms: _26  and  _29
REMARK   14  A    between atoms: _29  and  _30
REMARK   15  A    between atoms: _33  and  _35
REMARK   16  A    between atoms: _35  and  _36
REMARK   17  A    between atoms: _38  and  _40
REMARK   18  A    between atoms: _40  and  _41
REMARK   19  A    between atoms: _40  and  _43
REMARK   20  A    between atoms: _43  and  _44
REMARK   21  A    between atoms: _46  and  _48
REMARK   22  A    between atoms: _48  and  _49
REMARK   23  A    between atoms: _48  and  _51
REMARK   24  A    between atoms: _51  and  _52
REMARK   25  A    between atoms: _58  and  _60
REMARK   26  A    between atoms: _60  and  _61
REMARK   27  A    between atoms: _63  and  _65
REMARK   28  A    between atoms: _65  and  _66
REMARK   29  A    between atoms: _65  and  _68
REMARK   30  A    between atoms: _68  and  _69
REMARK   31  A    between atoms: _69  and  _70
REMARK   32  A    between atoms: _70  and  _71
REMARK   33  A    between atoms: _80  and  _82
REMARK   34  A    between atoms: _82  and  _83
REMARK   35  A    between atoms: _82  and  _85
REMARK   36  A    between atoms: _88  and  _90
REMARK   37  A    between atoms: _90  and  _91
REMARK   38  A    between atoms: _90  and  _93
REMARK   39  A    between atoms: _93  and  _94
REMARK   40  A    between atoms: _94  and  _95
REMARK   41  A    between atoms: _97  and  _99
REMARK   42  A    between atoms: _99  and  _100
REMARK   43  A    between atoms: _99  and  _102
REMARK   44  A    between atoms: _102  and  _103
REMARK   45  A    between atoms: _106  and  _108
REMARK   46  A    between atoms: _108  and  _109
REMARK   47  A    between atoms: _108  and  _111
REMARK   48  A    between atoms: _111  and  _112
REMARK   49  A    between atoms: _117  and  _118
REMARK   50  A    between atoms: _120  and  _122
REMARK   51  A    between atoms: _122  and  _123
REMARK   52  A    between atoms: _126  and  _128
REMARK   53  A    between atoms: _128  and  _129
REMARK   54  A    between atoms: _128  and  _131
REMARK   55  A    between atoms: _131  and  _132
REMARK   56  A    between atoms: _132  and  _133
REMARK   57  A    between atoms: _135  and  _137
REMARK   58  A    between atoms: _137  and  _138
REMARK   59  A    between atoms: _137  and  _140
REMARK   60  A    between atoms: _140  and  _141
REMARK   61  A    between atoms: _141  and  _142
REMARK   62  A    between atoms: _142  and  _143
REMARK   63  A    between atoms: _143  and  _144
REMARK   64  A    between atoms: _148  and  _150
REMARK   65  A    between atoms: _150  and  _151
REMARK   66  A    between atoms: _150  and  _153
REMARK   67  A    between atoms: _153  and  _154
REMARK   68  A    between atoms: _157  and  _159
REMARK   69  A    between atoms: _159  and  _160
REMARK   70  A    between atoms: _159  and  _162
REMARK   71  A    between atoms: _162  and  _163
REMARK   72  A    between atoms: _166  and  _168
REMARK   73  A    between atoms: _168  and  _169
REMARK   74  A    between atoms: _168  and  _171
REMARK   75  A    between atoms: _171  and  _172
REMARK   76  A    between atoms: _175  and  _177
REMARK   77  A    between atoms: _177  and  _178
REMARK   78  A    between atoms: _177  and  _180
REMARK   79  A    between atoms: _180  and  _181
REMARK   80  A    between atoms: _181  and  _182
REMARK   81  A    between atoms: _182  and  _183
REMARK   82  A    between atoms: _183  and  _184
REMARK   83  A    between atoms: _188  and  _190
REMARK   84  A    between atoms: _190  and  _191
REMARK   85  A    between atoms: _190  and  _193
REMARK   86  A    between atoms: _196  and  _198
REMARK   87  A    between atoms: _198  and  _199
REMARK   88  A    between atoms: _198  and  _201
REMARK   89  A    between atoms: _201  and  _202
REMARK   90  A    between atoms: _205  and  _207
REMARK   91  A    between atoms: _207  and  _208
REMARK   92  A    between atoms: _207  and  _210
REMARK   93  A    between atoms: _210  and  _211
REMARK   94  A    between atoms: _211  and  _212
REMARK   95  A    between atoms: _212  and  _213
REMARK   96  A    between atoms: _213  and  _214
REMARK   97  A    between atoms: _218  and  _220
REMARK   98  A    between atoms: _220  and  _221
REMARK   99  A    between atoms: _220  and  _223
REMARK  100  A    between atoms: _223  and  _224
REMARK  101  A    between atoms: _224  and  _225
REMARK  102  A    between atoms: _228  and  _230
REMARK  103  A    between atoms: _230  and  _231
REMARK  104  A    between atoms: _230  and  _233
REMARK  105  A    between atoms: _233  and  _234
REMARK  106  A    between atoms: _237  and  _239
REMARK  107  A    between atoms: _239  and  _240
REMARK  108  A    between atoms: _239  and  _242
REMARK  109  A    between atoms: _242  and  _243
REMARK  110  A    between atoms: _243  and  _244
REMARK  111  A    between atoms: _247  and  _249
REMARK  112  A    between atoms: _249  and  _250
REMARK  113  A    between atoms: _249  and  _252
REMARK  114  A    between atoms: _252  and  _253
REMARK  115  A    between atoms: _258  and  _260
REMARK  116  A    between atoms: _260  and  _261
REMARK  117  A    between atoms: _260  and  _263
REMARK  118  A    between atoms: _263  and  _264
REMARK  119  A    between atoms: _267  and  _269
REMARK  120  A    between atoms: _269  and  _270
REMARK  121  A    between atoms: _269  and  _272
REMARK  122  A    between atoms: _272  and  _273
REMARK  123  A    between atoms: _276  and  _278
REMARK  124  A    between atoms: _278  and  _279
REMARK  125  A    between atoms: _278  and  _281
REMARK  126  A    between atoms: _281  and  _282
REMARK  127  A    between atoms: _287  and  _289
REMARK  128  A    between atoms: _289  and  _290
REMARK  129  A    between atoms: _289  and  _292
REMARK  130  A    between atoms: _292  and  _293
REMARK  131  A    between atoms: _293  and  _294
REMARK  132  A    between atoms: _297  and  _299
REMARK  133  A    between atoms: _299  and  _300
REMARK  134  A    between atoms: _299  and  _302
REMARK  135  A    between atoms: _302  and  _303
REMARK  136  A    between atoms: _303  and  _304
REMARK  137  A    between atoms: _304  and  _305
REMARK  138  A    between atoms: _305  and  _306
REMARK  139  A    between atoms: _310  and  _312
REMARK  140  A    between atoms: _312  and  _313
REMARK  141  A    between atoms: _312  and  _315
REMARK  142  A    between atoms: _315  and  _316
REMARK  143  A    between atoms: _319  and  _321
REMARK  144  A    between atoms: _321  and  _322
REMARK  145  A    between atoms: _321  and  _324
REMARK  146  A    between atoms: _327  and  _329
REMARK  147  A    between atoms: _329  and  _330
REMARK  148  A    between atoms: _329  and  _332
REMARK  149  A    between atoms: _332  and  _333
REMARK  150  A    between atoms: _333  and  _334
REMARK  151  A    between atoms: _334  and  _335
REMARK  152  A    between atoms: _335  and  _336
REMARK  153  A    between atoms: _340  and  _342
REMARK  154  A    between atoms: _342  and  _343
REMARK  155  A    between atoms: _342  and  _345
REMARK  156  A    between atoms: _345  and  _346
REMARK  157  A    between atoms: _349  and  _351
REMARK  158  A    between atoms: _351  and  _352
REMARK  159  A    between atoms: _351  and  _354
REMARK  160  A    between atoms: _354  and  _355
REMARK  161  A    between atoms: _355  and  _356
REMARK  162  A    between atoms: _358  and  _360
REMARK  163  A    between atoms: _360  and  _361
REMARK  164  A    between atoms: _360  and  _363
REMARK  165  A    between atoms: _363  and  _364
REMARK  166  A    between atoms: _364  and  _365
REMARK  167  A    between atoms: _367  and  _369
REMARK  168  A    between atoms: _369  and  _370
REMARK  169  A    between atoms: _369  and  _372
REMARK  170  A    between atoms: _372  and  _373
REMARK  171  A    between atoms: _373  and  _374
REMARK  172  A    between atoms: _377  and  _379
REMARK  173  A    between atoms: _379  and  _380
REMARK  174  A    between atoms: _379  and  _382
REMARK  175  A    between atoms: _382  and  _383
REMARK  176  A    between atoms: _388  and  _389
REMARK  177  A    between atoms: _391  and  _393
REMARK  178  A    between atoms: _393  and  _394
REMARK  179  A    between atoms: _398  and  _399
REMARK  180  A    between atoms: _404  and  _406
REMARK  181  A    between atoms: _406  and  _407
REMARK  182  A    between atoms: _409  and  _411
REMARK  183  A    between atoms: _411  and  _412
REMARK  184  A    between atoms: _414  and  _416
REMARK  185  A    between atoms: _416  and  _417
REMARK  186  A    between atoms: _416  and  _419
REMARK  187  A    between atoms: _419  and  _420
REMARK  188  A    between atoms: _420  and  _421
REMARK  189  A    between atoms: _424  and  _426
REMARK  190  A    between atoms: _426  and  _427
REMARK  191  A    between atoms: _426  and  _429
REMARK  192  A    between atoms: _429  and  _430
REMARK  193  A    between atoms: _430  and  _431
REMARK  194  A    between atoms: _433  and  _435
REMARK  195  A    between atoms: _435  and  _436
REMARK  196  A    between atoms: _435  and  _438
REMARK  197  A    between atoms: _438  and  _439
REMARK  198  A    between atoms: _445  and  _447
REMARK  199  A    between atoms: _447  and  _448
REMARK  200  A    between atoms: _447  and  _450
REMARK  201  A    between atoms: _450  and  _451
REMARK  202  A    between atoms: _456  and  _457
REMARK  203  A    between atoms: _459  and  _461
REMARK  204  A    between atoms: _461  and  _462
REMARK  205  A    between atoms: _461  and  _464
REMARK  206  A    between atoms: _464  and  _465
REMARK  207  A    between atoms: _468  and  _470
REMARK  208  A    between atoms: _470  and  _471
REMARK  209  A    between atoms: _470  and  _473
REMARK  210  A    between atoms: _473  and  _474
REMARK  211  A    between atoms: _474  and  _475
REMARK  212  A    between atoms: _475  and  _476
REMARK  213  A    between atoms: _476  and  _477
REMARK  214  A    between atoms: _482  and  _483
REMARK  215  A    between atoms: _488  and  _490
REMARK  216  A    between atoms: _490  and  _491
REMARK  217  A    between atoms: _490  and  _493
REMARK  218  A    between atoms: _493  and  _494
REMARK  219  A    between atoms: _494  and  _495
REMARK  220  A    between atoms: _498  and  _500
REMARK  221  A    between atoms: _500  and  _501
REMARK  222  A    between atoms: _500  and  _503
REMARK  223  A    between atoms: _503  and  _504
REMARK  224  A    between atoms: _509  and  _511
REMARK  225  A    between atoms: _511  and  _512
REMARK  226  A    between atoms: _511  and  _514
REMARK  227  A    between atoms: _514  and  _515
REMARK  228  A    between atoms: _518  and  _520
REMARK  229  A    between atoms: _520  and  _521
REMARK  230  A    between atoms: _520  and  _523
REMARK  231  A    between atoms: _523  and  _524
REMARK  232  A    between atoms: _524  and  _525
REMARK  233  A    between atoms: _527  and  _529
REMARK  234  A    between atoms: _529  and  _530
REMARK  235  A    between atoms: _529  and  _532
REMARK  236  A    between atoms: _532  and  _533
REMARK  237  A    between atoms: _536  and  _538
REMARK  238  A    between atoms: _538  and  _539
REMARK  239  A    between atoms: _538  and  _541
REMARK  240  A    between atoms: _541  and  _542
REMARK  241  A    between atoms: _542  and  _543
REMARK  242  A    between atoms: _543  and  _544
REMARK  243  A    between atoms: _544  and  _545
REMARK  244  A    between atoms: _549  and  _551
REMARK  245  A    between atoms: _551  and  _552
REMARK  246  A    between atoms: _551  and  _554
REMARK  247  A    between atoms: _557  and  _559
REMARK  248  A    between atoms: _559  and  _560
REMARK  249  A    between atoms: _559  and  _562
REMARK  250  A    between atoms: _562  and  _563
REMARK  251  A    between atoms: _566  and  _568
REMARK  252  A    between atoms: _568  and  _569
REMARK  253  A    between atoms: _568  and  _571
REMARK  254  A    between atoms: _571  and  _572
REMARK  255  A    between atoms: _575  and  _577
REMARK  256  A    between atoms: _577  and  _578
REMARK  257  A    between atoms: _577  and  _580
REMARK  258  A    between atoms: _580  and  _581
REMARK  259  A    between atoms: _587  and  _589
REMARK  260  A    between atoms: _589  and  _590
REMARK  261  A    between atoms: _592  and  _594
REMARK  262  A    between atoms: _594  and  _595
REMARK  263  A    between atoms: _594  and  _597
REMARK  264  A    between atoms: _597  and  _598
REMARK  265  A    between atoms: _601  and  _603
REMARK  266  A    between atoms: _603  and  _604
REMARK  267  A    between atoms: _607  and  _609
REMARK  268  A    between atoms: _609  and  _610
REMARK  269  A    between atoms: _609  and  _612
REMARK  270  A    between atoms: _614  and  _616
REMARK  271  A    between atoms: _616  and  _617
REMARK  272  A    between atoms: _619  and  _621
REMARK  273  A    between atoms: _621  and  _622
REMARK  274  A    between atoms: _621  and  _624
REMARK  275  A    between atoms: _624  and  _625
REMARK  276  A    between atoms: _631  and  _633
REMARK  277  A    between atoms: _633  and  _634
REMARK  278  A    between atoms: _633  and  _636
REMARK  279  A    between atoms: _636  and  _637
REMARK  280  A    between atoms: _642  and  _643
REMARK                            x       y       z     vdW  Elec       q    Type
REMARK                         _______ _______ _______ _____ _____    ______ ____
ROOT
ATOM      1  CA  MET A   1      17.310  33.584   7.203  0.00  0.00    +0.134 C 
ENDROOT
BRANCH   1   2
ATOM      2  N   MET A   1      18.364  33.795   8.200  0.00  0.00    -0.239 NA
ATOM      3  H   MET A   1      18.272  34.598   8.855  0.00  0.00    +0.142 HD
ENDBRANCH   1   2
BRANCH   1   4
ATOM      4  C   MET A   1      17.131  34.853   6.394  0.00  0.00    +0.224 C 
ATOM      5  O   MET A   1      16.747  35.882   6.937  0.00  0.00    -0.287 OA
ENDBRANCH   1   4
BRANCH   1   6
ATOM      6  CB  MET A   1      15.976  33.191   7.872  0.00  0.00    +0.037 C 
BRANCH   6   7
ATOM      7  CG  MET A   1      15.988  31.803   8.468  0.00  0.00    +0.059 C 
BRANCH   7   8
ATOM      8  SD  MET A   1      14.661  31.454   9.680  0.00  0.00    -0.139 S 
ATOM      9  CE  MET A   1      15.418  32.064  11.170  0.00  0.00    +0.069 C 
ENDBRANCH   7   8
ENDBRANCH   6   7
ENDBRANCH   1   6
TORSDOF 5
REMARK  Name = ../refined-set-2016/1xh9/1xh9_pocket.pdb
REMARK  280 active torsions:
REMARK  status: ('A' for Active; 'I' for Inactive)
REMARK    1  A    between atoms: _1  and  _3
REMARK    2  A    between atoms: _3  and  _4
REMARK    3  A    between atoms: _3  and  _6
REMARK    4  A    between atoms: _6  and  _7
REMARK    5  A    between atoms: _10  and  _12
REMARK    6  A    between atoms: _12  and  _13
REMARK    7  A    between atoms: _12  and  _15
REMARK    8  A    between atoms: _15  and  _16
REMARK    9  A    between atoms: _19  and  _21
REMARK   10  A    between atoms: _21  and  _22
REMARK   11  A    between atoms: _24  and  _26
REMARK   12  A    between atoms: _26  and  _27
REMARK   13  A    between atoms: _26  and  _29
REMARK   14  A    between atoms: _29  and  _30
REMARK   15  A    between atoms: _33  and  _35
REMARK   16  A    between atoms: _35  and  _36
REMARK   17  A    between atoms: _38  and  _40
REMARK   18  A    between atoms: _40  and  _41
REMARK   19  A    between atoms: _40  and  _43
REMARK   20  A    between atoms: _43  and  _44
REMARK   21  A    between atoms: _46  and  _48
REMARK   22  A    between atoms: _48  and  _49
REMARK   23  A    between atoms: _48  and  _51
REMARK   24  A    between atoms: _51  and  _52
REMARK   25  A    between atoms: _58  and  _60
REMARK   26  A    between atoms: _60  and  _61
REMARK   27  A    between atoms: _63  and  _65
REMARK   28  A    between atoms: _65  and  _66
REMARK   29  A    between atoms: _65  and  _68
REMARK   30  A    between atoms: _68  and  _69
REMARK   31  A    between atoms: _69  and  _70
REMARK   32  A    between atoms: _70  and  _71
REMARK   33  A    between atoms: _80  and  _82
REMARK   34  A    between atoms: _82  and  _83
REMARK   35  A    between atoms: _82  and  _85
REMARK   36  A    between atoms: _88  and  _90
REMARK   37  A    between atoms: _90  and  _91
REMARK   38  A    between atoms: _90  and  _93
REMARK   39  A    between atoms: _93  and  _94
REMARK   40  A    between atoms: _94  and  _95
REMARK   41  A    between atoms: _97  and  _99
REMARK   42  A    between atoms: _99  and  _100
REMARK   43  A    between atoms: _99  and  _102
REMARK   44  A    between atoms: _102  and  _103
REMARK   45  A    between atoms: _106  and  _108
REMARK   46  A    between atoms: _108  and  _109
REMARK   47  A    between atoms: _108  and  _111
REMARK   48  A    between atoms: _111  and  _112
REMARK   49  A    between atoms: _117  and  _118
REMARK   50  A    between atoms: _120  and  _122
REMARK   51  A    between atoms: _122  and  _123
REMARK   52  A    between atoms: _126  and  _128
REMARK   53  A    between atoms: _128  and  _129
REMARK   54  A    between atoms: _128  and  _131
REMARK   55  A    between atoms: _131  and  _132
REMARK   56  A    between atoms: _132  and  _133
REMARK   57  A    between atoms: _135  and  _137
REMARK   58  A    between atoms: _137  and  _138
REMARK   59  A    between atoms: _137  and  _140
REMARK   60  A    between atoms: _140  and  _141
REMARK   61  A    between atoms: _141  and  _142
REMARK   62  A    between atoms: _142  and  _143
REMARK   63  A    between atoms: _143  and  _144
REMARK   64  A    between atoms: _148  and  _150
REMARK   65  A    between atoms: _150  and  _151
REMARK   66  A    between atoms: _150  and  _153
REMARK   67  A    between atoms: _153  and  _154
REMARK   68  A    between atoms: _157  and  _159
REMARK   69  A    between atoms: _159  and  _160
REMARK   70  A    between atoms: _159  and  _162
REMARK   71  A    between atoms: _162  and  _163
REMARK   72  A    between atoms: _166  and  _168
REMARK   73  A    between atoms: _168  and  _169
REMARK   74  A    between atoms: _168  and  _171
REMARK   75  A    between atoms: _171  and  _172
REMARK   76  A    between atoms: _175  and  _177
REMARK   77  A    between atoms: _177  and  _178
REMARK   78  A    between atoms: _177  and  _180
REMARK   79  A    between atoms: _180  and  _181
REMARK   80  A    between atoms: _181  and  _182
REMARK   81  A    between atoms: _182  and  _183
REMARK   82  A    between atoms: _183  and  _184
REMARK   83  A    between atoms: _188  and  _190
REMARK   84  A    between atoms: _190  and  _191
REMARK   85  A    between atoms: _190  and  _193
REMARK   86  A    between atoms: _196  and  _198
REMARK   87  A    between atoms: _198  and  _199
REMARK   88  A    between atoms: _198  and  _201
REMARK   89  A    between atoms: _201  and  _202
REMARK   90  A    between atoms: _205  and  _207
REMARK   91  A    between atoms: _207  and  _208
REMARK   92  A    between atoms: _207  and  _210
REMARK   93  A    between atoms: _210  and  _211
REMARK   94  A    between atoms: _211  and  _212
REMARK   95  A    between atoms: _212  and  _213
REMARK   96  A    between atoms: _213  and  _214
REMARK   97  A    between atoms: _218  and  _220
REMARK   98  A    between atoms: _220  and  _221
REMARK   99  A    between atoms: _220  and  _223
REMARK  100  A    between atoms: _223  and  _224
REMARK  101  A    between atoms: _224  and  _225
REMARK  102  A    between atoms: _228  and  _230
REMARK  103  A    between atoms: _230  and  _231
REMARK  104  A    between atoms: _230  and  _233
REMARK  105  A    between atoms: _233  and  _234
REMARK  106  A    between atoms: _237  and  _239
REMARK  107  A    between atoms: _239  and  _240
REMARK  108  A    between atoms: _239  and  _242
REMARK  109  A    between atoms: _242  and  _243
REMARK  110  A    between atoms: _243  and  _244
REMARK  111  A    between atoms: _247  and  _249
REMARK  112  A    between atoms: _249  and  _250
REMARK  113  A    between atoms: _249  and  _252
REMARK  114  A    between atoms: _252  and  _253
REMARK  115  A    between atoms: _258  and  _260
REMARK  116  A    between atoms: _260  and  _261
REMARK  117  A    between atoms: _260  and  _263
REMARK  118  A    between atoms: _263  and  _264
REMARK  119  A    between atoms: _267  and  _269
REMARK  120  A    between atoms: _269  and  _270
REMARK  121  A    between atoms: _269  and  _272
REMARK  122  A    between atoms: _272  and  _273
REMARK  123  A    between atoms: _276  and  _278
REMARK  124  A    between atoms: _278  and  _279
REMARK  125  A    between atoms: _278  and  _281
REMARK  126  A    between atoms: _281  and  _282
REMARK  127  A    between atoms: _287  and  _289
REMARK  128  A    between atoms: _289  and  _290
REMARK  129  A    between atoms: _289  and  _292
REMARK  130  A    between atoms: _292  and  _293
REMARK  131  A    between atoms: _293  and  _294
REMARK  132  A    between atoms: _297  and  _299
REMARK  133  A    between atoms: _299  and  _300
REMARK  134  A    between atoms: _299  and  _302
REMARK  135  A    between atoms: _302  and  _303
REMARK  136  A    between atoms: _303  and  _304
REMARK  137  A    between atoms: _304  and  _305
REMARK  138  A    between atoms: _305  and  _306
REMARK  139  A    between atoms: _310  and  _312
REMARK  140  A    between atoms: _312  and  _313
REMARK  141  A    between atoms: _312  and  _315
REMARK  142  A    between atoms: _315  and  _316
REMARK  143  A    between atoms: _319  and  _321
REMARK  144  A    between atoms: _321  and  _322
REMARK  145  A    between atoms: _321  and  _324
REMARK  146  A    between atoms: _327  and  _329
REMARK  147  A    between atoms: _329  and  _330
REMARK  148  A    between atoms: _329  and  _332
REMARK  149  A    between atoms: _332  and  _333
REMARK  150  A    between atoms: _333  and  _334
REMARK  151  A    between atoms: _334  and  _335
REMARK  152  A    between atoms: _335  and  _336
REMARK  153  A    between atoms: _340  and  _342
REMARK  154  A    between atoms: _342  and  _343
REMARK  155  A    between atoms: _342  and  _345
REMARK  156  A    between atoms: _345  and  _346
REMARK  157  A    between atoms: _349  and  _351
REMARK  158  A    between atoms: _351  and  _352
REMARK  159  A    between atoms: _351  and  _354
REMARK  160  A    between atoms: _354  and  _355
REMARK  161  A    between atoms: _355  and  _356
REMARK  162  A    between atoms: _358  and  _360
REMARK  163  A    between atoms: _360  and  _361
REMARK  164  A    between atoms: _360  and  _363
REMARK  165  A    between atoms: _363  and  _364
REMARK  166  A    between atoms: _364  and  _365
REMARK  167  A    between atoms: _367  and  _369
REMARK  168  A    between atoms: _369  and  _370
REMARK  169  A    between atoms: _369  and  _372
REMARK  170  A    between atoms: _372  and  _373
REMARK  171  A    between atoms: _373  and  _374
REMARK  172  A    between atoms: _377  and  _379
REMARK  173  A    between atoms: _379  and  _380
REMARK  174  A    between atoms: _379  and  _382
REMARK  175  A    between atoms: _382  and  _383
REMARK  176  A    between atoms: _388  and  _389
REMARK  177  A    between atoms: _391  and  _393
REMARK  178  A    between atoms: _393  and  _394
REMARK  179  A    between atoms: _398  and  _399
REMARK  180  A    between atoms: _404  and  _406
REMARK  181  A    between atoms: _406  and  _407
REMARK  182  A    between atoms: _409  and  _411
REMARK  183  A    between atoms: _411  and  _412
REMARK  184  A    between atoms: _414  and  _416
REMARK  185  A    between atoms: _416  and  _417
REMARK  186  A    between atoms: _416  and  _419
REMARK  187  A    between atoms: _419  and  _420
REMARK  188  A    between atoms: _420  and  _421
REMARK  189  A    between atoms: _424  and  _426
REMARK  190  A    between atoms: _426  and  _427
REMARK  191  A    between atoms: _426  and  _429
REMARK  192  A    between atoms: _429  and  _430
REMARK  193  A    between atoms: _430  and  _431
REMARK  194  A    between atoms: _433  and  _435
REMARK  195  A    between atoms: _435  and  _436
REMARK  196  A    between atoms: _435  and  _438
REMARK  197  A    between atoms: _438  and  _439
REMARK  198  A    between atoms: _445  and  _447
REMARK  199  A    between atoms: _447  and  _448
REMARK  200  A    between atoms: _447  and  _450
REMARK  201  A    between atoms: _450  and  _451
REMARK  202  A    between atoms: _456  and  _457
REMARK  203  A    between atoms: _459  and  _461
REMARK  204  A    between atoms: _461  and  _462
REMARK  205  A    between atoms: _461  and  _464
REMARK  206  A    between atoms: _464  and  _465
REMARK  207  A    between atoms: _468  and  _470
REMARK  208  A    between atoms: _470  and  _471
REMARK  209  A    between atoms: _470  and  _473
REMARK  210  A    between atoms: _473  and  _474
REMARK  211  A    between atoms: _474  and  _475
REMARK  212  A    between atoms: _475  and  _476
REMARK  213  A    between atoms: _476  and  _477
REMARK  214  A    between atoms: _482  and  _483
REMARK  215  A    between atoms: _488  and  _490
REMARK  216  A    between atoms: _490  and  _491
REMARK  217  A    between atoms: _490  and  _493
REMARK  218  A    between atoms: _493  and  _494
REMARK  219  A    between atoms: _494  and  _495
REMARK  220  A    between atoms: _498  and  _500
REMARK  221  A    between atoms: _500  and  _501
REMARK  222  A    between atoms: _500  and  _503
REMARK  223  A    between atoms: _503  and  _504
REMARK  224  A    between atoms: _509  and  _511
REMARK  225  A    between atoms: _511  and  _512
REMARK  226  A    between atoms: _511  and  _514
REMARK  227  A    between atoms: _514  and  _515
REMARK  228  A    between atoms: _518  and  _520
REMARK  229  A    between atoms: _520  and  _521
REMARK  230  A    between atoms: _520  and  _523
REMARK  231  A    between atoms: _523  and  _524
REMARK  232  A    between atoms: _524  and  _525
REMARK  233  A    between atoms: _527  and  _529
REMARK  234  A    between atoms: _529  and  _530
REMARK  235  A    between atoms: _529  and  _532
REMARK  236  A    between atoms: _532  and  _533
REMARK  237  A    between atoms: _536  and  _538
REMARK  238  A    between atoms: _538  and  _539
REMARK  239  A    between atoms: _538  and  _541
REMARK  240  A    between atoms: _541  and  _542
REMARK  241  A    between atoms: _542  and  _543
REMARK  242  A    between atoms: _543  and  _544
REMARK  243  A    between atoms: _544  and  _545
REMARK  244  A    between atoms: _549  and  _551
REMARK  245  A    between atoms: _551  and  _552
REMARK  246  A    between atoms: _551  and  _554
REMARK  247  A    between atoms: _557  and  _559
REMARK  248  A    between atoms: _559  and  _560
REMARK  249  A    between atoms: _559  and  _562
REMARK  250  A    between atoms: _562  and  _563
REMARK  251  A    between atoms: _566  and  _568
REMARK  252  A    between atoms: _568  and  _569
REMARK  253  A    between atoms: _568  and  _571
REMARK  254  A    between atoms: _571  and  _572
REMARK  255  A    between atoms: _575  and  _577
REMARK  256  A    between atoms: _577  and  _578
REMARK  257  A    between atoms: _577  and  _580
REMARK  258  A    between atoms: _580  and  _581
REMARK  259  A    between atoms: _587  and  _589
REMARK  260  A    between atoms: _589  and  _590
REMARK  261  A    between atoms: _592  and  _594
REMARK  262  A    between atoms: _594  and  _595
REMARK  263  A    between atoms: _594  and  _597
REMARK  264  A    between atoms: _597  and  _598
REMARK  265  A    between atoms: _601  and  _603
REMARK  266  A    between atoms: _603  and  _604
REMARK  267  A    between atoms: _607  and  _609
REMARK  268  A    between atoms: _609  and  _610
REMARK  269  A    between atoms: _609  and  _612
REMARK  270  A    between atoms: _614  and  _616
REMARK  271  A    between atoms: _616  and  _617
REMARK  272  A    between atoms: _619  and  _621
REMARK  273  A    between atoms: _621  and  _622
REMARK  274  A    between atoms: _621  and  _624
REMARK  275  A    between atoms: _624  and  _625
REMARK  276  A    between atoms: _631  and  _633
REMARK  277  A    between atoms: _633  and  _634
REMARK  278  A    between atoms: _633  and  _636
REMARK  279  A    between atoms: _636  and  _637
REMARK  280  A    between atoms: _642  and  _643
REMARK                            x       y       z     vdW  Elec       q    Type
REMARK                         _______ _______ _______ _____ _____    ______ ____
ROOT
ATOM      1  C   ALA A   4       8.479  45.462   2.698  0.00  0.00    +0.244 C 
ATOM      2  O   ALA A   4       8.460  45.829   3.879  0.00  0.00    -0.273 OA
ATOM      3  N   PRO A   5       8.599  46.320   1.699  0.00  0.00    -0.272 N 
ATOM      4  CA  PRO A   5       8.949  47.713   1.962  0.00  0.00    +0.152 C 
ATOM      5  CB  PRO A   5       9.358  48.214   0.577  0.00  0.00    +0.031 C 
ATOM      6  CG  PRO A   5       8.639  47.380  -0.374  0.00  0.00    +0.024 C 
ATOM      7  CD  PRO A   5       8.467  46.051   0.252  0.00  0.00    +0.094 C 
ENDROOT
BRANCH   4   8
ATOM      8  C   PRO A   5       7.820  48.573   2.550  0.00  0.00    +0.241 C 
ATOM      9  O   PRO A   5       8.068  49.685   2.996  0.00  0.00    -0.273 OA
ATOM     10  N   GLY A   6       6.599  48.069   2.531  0.00  0.00    -0.295 N 
ATOM     11  H   GLY A   6       6.434  47.138   2.099  0.00  0.00    +0.150 HD
BRANCH  10  12
ATOM     12  CA  GLY A   6       5.487  48.798   3.105  0.00  0.00    +0.176 C 
BRANCH  12  13
ATOM     13  C   GLY A   6       5.440  48.812   4.625  0.00  0.00    +0.243 C 
ATOM     14  N   GLY A   7       6.286  48.031   5.278  0.00  0.00    -0.295 N 
ATOM     15  H   GLY A   7       6.945  47.436   4.737  0.00  0.00    +0.150 HD
ATOM     16  O   GLY A   6       4.614  49.518   5.217  0.00  0.00    -0.273 OA
BRANCH  14  17
ATOM     17  CA  GLY A   7       6.320  47.982   6.723  0.00  0.00    +0.176 C 
BRANCH  17  18
ATOM     18  C   GLY A   7       5.270  47.040   7.285  0.00  0.00    +0.243 C 
ATOM     19  N   GLU A   8       5.149  47.042   8.606  0.00  0.00    -0.297 N 
ATOM     20  H   GLU A   8       5.771  47.666   9.159  0.00  0.00    +0.150 HD
ATOM     21  O   GLY A   7       4.610  46.323   6.539  0.00  0.00    -0.273 OA
BRANCH  19  22
ATOM     22  CA  GLU A   8       4.183  46.209   9.323  0.00  0.00    +0.149 C 
BRANCH  22  23
ATOM     23  C   GLU A   8       2.798  46.821   9.301  0.00  0.00    +0.241 C 
ATOM     24  O   GLU A   8       2.644  48.021   9.507  0.00  0.00    -0.273 OA
ATOM     25  N   MET A   9       1.773  45.980   9.140  0.00  0.00    -0.297 N 
ATOM     26  H   MET A   9       1.955  44.984   8.902  0.00  0.00    +0.150 HD
BRANCH  25  27
ATOM     27  CA  MET A   9       0.406  46.445   9.295  0.00  0.00    +0.149 C 
BRANCH  27  28
ATOM     28  C   MET A   9       0.255  47.198  10.600  0.00  0.00    +0.241 C 
ATOM     29  N   PHE A  10       0.868  46.667  11.654  0.00  0.00    -0.298 N 
ATOM     30  H   PHE A  10       1.393  45.780  11.517  0.00  0.00    +0.150 HD
ATOM     31  O   MET A   9      -0.457  48.199  10.640  0.00  0.00    -0.273 OA
BRANCH  29  32
ATOM     32  CA  PHE A  10       0.850  47.249  12.986  0.00  0.00    +0.141 C 
BRANCH  32  33
ATOM     33  C   PHE A  10       1.103  48.761  12.957  0.00  0.00    +0.227 C 
ATOM     34  O   PHE A  10       0.375  49.545  13.576  0.00  0.00    -0.286 OA
ENDBRANCH  32  33
BRANCH  32  35
ATOM     35  CB  PHE A  10       1.900  46.554  13.868  0.00  0.00    +0.054 C 
BRANCH  35  36
ATOM     36  CG  PHE A  10       2.122  47.236  15.180  0.00  0.00    -0.020 A 
ATOM     37  CD2 PHE A  10       1.309  46.950  16.272  0.00  0.00    -0.004 A 
ATOM     38  CE2 PHE A  10       1.496  47.601  17.493  0.00  0.00    -0.000 A 
ATOM     39  CZ  PHE A  10       2.496  48.542  17.609  0.00  0.00    -0.000 A 
ATOM     40  CE1 PHE A  10       3.293  48.854  16.536  0.00  0.00    -0.000 A 
ATOM     41  CD1 PHE A  10       3.122  48.182  15.318  0.00  0.00    -0.004 A 
ENDBRANCH  35  36
ENDBRANCH  32  35
ENDBRANCH  29  32
ENDBRANCH  27  28
BRANCH  27  42
ATOM     42  CB  MET A   9      -0.589  45.291   9.287  0.00  0.00    +0.041 C 
BRANCH  42  43
ATOM     43  CG  MET A   9      -2.034  45.747   9.382  0.00  0.00    +0.060 C 
BRANCH  43  44
ATOM     44  SD  MET A   9      -3.200  44.423   9.697  0.00  0.00    -0.139 S 
ATOM     45  CE  MET A   9      -3.142  43.509   8.199  0.00  0.00    +0.069 C 
ENDBRANCH  43  44
ENDBRANCH  42  43
ENDBRANCH  27  42
ENDBRANCH  25  27
ENDBRANCH  22  23
BRANCH  22  46
ATOM     46  CB  GLU A   8       4.592  46.050  10.792  0.00  0.00    +0.041 C 
BRANCH  46  47
ATOM     47  CG  GLU A   8       5.964  45.400  10.958  0.00  0.00    +0.116 C 
BRANCH  47  48
ATOM     48  CD  GLU A   8       6.528  45.507  12.332  0.00  0.00    +0.365 C 
ATOM     49  OE2 GLU A   8       5.850  46.041  13.241  0.00  0.00    -0.246 OA
ATOM     50  OE1 GLU A   8       7.684  45.055  12.546  0.00  0.00    -0.246 OA
ENDBRANCH  47  48
ENDBRANCH  46  47
ENDBRANCH  22  46
ENDBRANCH  19  22
ENDBRANCH  17  18
ENDBRANCH  14  17
ENDBRANCH  12  13
ENDBRANCH  10  12
ENDBRANCH   4   8
BRANCH   1  51
ATOM     51  CA  ALA A   4       8.403  43.997   2.334  0.00  0.00    +0.149 C 
ATOM     52  CB  ALA A   4       7.380  43.302   3.189  0.00  0.00    +0.031 C 
BRANCH  51  54
ATOM     53  C   TYR A   3      10.522  43.039   1.539  0.00  0.00    +0.241 C 
ATOM     54  N   ALA A   4       9.749  43.427   2.554  0.00  0.00    -0.297 N 
ATOM     55  H   ALA A   4      10.103  43.326   3.527  0.00  0.00    +0.150 HD
ATOM     56  O   TYR A   3      10.162  43.092   0.362  0.00  0.00    -0.273 OA
BRANCH  53  57
ATOM     57  CA  TYR A   3      11.910  42.514   1.898  0.00  0.00    +0.153 C 
BRANCH  57  60
ATOM     58  C   GLU A   2      11.736  40.086   1.666  0.00  0.00    +0.241 C 
ATOM     59  O   GLU A   2      11.204  39.955   2.783  0.00  0.00    -0.273 OA
ATOM     60  N   TYR A   3      12.128  41.258   1.187  0.00  0.00    -0.297 N 
ATOM     61  H   TYR A   3      12.611  41.284   0.266  0.00  0.00    +0.150 HD
BRANCH  58  62
ATOM     62  CA  GLU A   2      12.035  38.865   0.782  0.00  0.00    +0.149 C 
BRANCH  62  65
ATOM     63  C   MET A   1      13.493  37.829   2.376  0.00  0.00    +0.238 C 
ATOM     64  O   MET A   1      14.259  38.787   2.367  0.00  0.00    -0.274 OA
ATOM     65  N   GLU A   2      12.417  37.759   1.614  0.00  0.00    -0.297 N 
ATOM     66  H   GLU A   2      11.840  36.894   1.616  0.00  0.00    +0.150 HD
BRANCH  63  67
ATOM     67  CA  MET A   1      13.703  36.663   3.315  0.00  0.00    +0.146 C 
BRANCH  67  68
ATOM     68  N   MET A   1      15.083  36.670   3.778  0.00  0.00    -0.238 NA
ATOM     69  H   MET A   1      15.372  37.440   4.415  0.00  0.00    +0.142 HD
ENDBRANCH  67  68
BRANCH  67  70
ATOM     70  CB  MET A   1      12.747  36.893   4.501  0.00  0.00    +0.038 C 
BRANCH  70  71
ATOM     71  CG  MET A   1      12.859  35.935   5.657  0.00  0.00    +0.060 C 
BRANCH  71  72
ATOM     72  SD  MET A   1      11.784  36.532   6.974  0.00  0.00    -0.139 S 
ATOM     73  CE  MET A   1      12.768  37.867   7.705  0.00  0.00    +0.069 C 
ENDBRANCH  71  72
ENDBRANCH  70  71
ENDBRANCH  67  70
ENDBRANCH  63  67
ENDBRANCH  62  65
BRANCH  62  74
ATOM     74  CB  GLU A   2      10.879  38.448  -0.134  0.00  0.00    +0.041 C 
BRANCH  74  75
ATOM     75  CG  GLU A   2       9.537  38.987   0.217  0.00  0.00    +0.116 C 
BRANCH  75  76
ATOM     76  CD  GLU A   2       8.471  38.473  -0.713  0.00  0.00    +0.365 C 
ATOM     77  OE2 GLU A   2       8.005  37.332  -0.499  0.00  0.00    -0.246 OA
ATOM     78  OE1 GLU A   2       8.105  39.220  -1.649  0.00  0.00    -0.246 OA
ENDBRANCH  75  76
ENDBRANCH  74  75
ENDBRANCH  62  74
ENDBRANCH  58  62
ENDBRANCH  57  60
BRANCH  57  79
ATOM     79  CB  TYR A   3      12.975  43.526   1.500  0.00  0.00    +0.055 C 
BRANCH  79  80
ATOM     80  CG  TYR A   3      12.783  44.917   2.047  0.00  0.00    -0.020 A 
ATOM     81  CD2 TYR A   3      12.543  45.124   3.397  0.00  0.00    -0.001 A 
ATOM     82  CE2 TYR A   3      12.392  46.397   3.908  0.00  0.00    +0.036 A 
ATOM     83  CZ  TYR A   3      12.509  47.480   3.053  0.00  0.00    +0.134 A 
ATOM     84  CE1 TYR A   3      12.748  47.298   1.724  0.00  0.00    +0.036 A 
ATOM     85  CD1 TYR A   3      12.898  46.022   1.223  0.00  0.00    -0.001 A 
BRANCH  83  86
ATOM     86  OH  TYR A   3      12.355  48.740   3.547  0.00  0.00    -0.506 OA
ATOM     87  HH  TYR A   3      13.178  49.263   3.376  0.00  0.00    +0.292 HD
ENDBRANCH  83  86
ENDBRANCH  79  80
ENDBRANCH  57  79
ENDBRANCH  53  57
ENDBRANCH  51  54
ENDBRANCH   1  51
TORSDOF 36
REMARK  Name = ../refined-set-2016/1xh9/1xh9_pocket.pdb
REMARK  280 active torsions:
REMARK  status: ('A' for Active; 'I' for Inactive)
REMARK    1  A    between atoms: _1  and  _3
REMARK    2  A    between atoms: _3  and  _4
REMARK    3  A    between atoms: _3  and  _6
REMARK    4  A    between atoms: _6  and  _7
REMARK    5  A    between atoms: _10  and  _12
REMARK    6  A    between atoms: _12  and  _13
REMARK    7  A    between atoms: _12  and  _15
REMARK    8  A    between atoms: _15  and  _16
REMARK    9  A    between atoms: _19  and  _21
REMARK   10  A    between atoms: _21  and  _22
REMARK   11  A    between atoms: _24  and  _26
REMARK   12  A    between atoms: _26  and  _27
REMARK   13  A    between atoms: _26  and  _29
REMARK   14  A    between atoms: _29  and  _30
REMARK   15  A    between atoms: _33  and  _35
REMARK   16  A    between atoms: _35  and  _36
REMARK   17  A    between atoms: _38  and  _40
REMARK   18  A    between atoms: _40  and  _41
REMARK   19  A    between atoms: _40  and  _43
REMARK   20  A    between atoms: _43  and  _44
REMARK   21  A    between atoms: _46  and  _48
REMARK   22  A    between atoms: _48  and  _49
REMARK   23  A    between atoms: _48  and  _51
REMARK   24  A    between atoms: _51  and  _52
REMARK   25  A    between atoms: _58  and  _60
REMARK   26  A    between atoms: _60  and  _61
REMARK   27  A    between atoms: _63  and  _65
REMARK   28  A    between atoms: _65  and  _66
REMARK   29  A    between atoms: _65  and  _68
REMARK   30  A    between atoms: _68  and  _69
REMARK   31  A    between atoms: _69  and  _70
REMARK   32  A    between atoms: _70  and  _71
REMARK   33  A    between atoms: _80  and  _82
REMARK   34  A    between atoms: _82  and  _83
REMARK   35  A    between atoms: _82  and  _85
REMARK   36  A    between atoms: _88  and  _90
REMARK   37  A    between atoms: _90  and  _91
REMARK   38  A    between atoms: _90  and  _93
REMARK   39  A    between atoms: _93  and  _94
REMARK   40  A    between atoms: _94  and  _95
REMARK   41  A    between atoms: _97  and  _99
REMARK   42  A    between atoms: _99  and  _100
REMARK   43  A    between atoms: _99  and  _102
REMARK   44  A    between atoms: _102  and  _103
REMARK   45  A    between atoms: _106  and  _108
REMARK   46  A    between atoms: _108  and  _109
REMARK   47  A    between atoms: _108  and  _111
REMARK   48  A    between atoms: _111  and  _112
REMARK   49  A    between atoms: _117  and  _118
REMARK   50  A    between atoms: _120  and  _122
REMARK   51  A    between atoms: _122  and  _123
REMARK   52  A    between atoms: _126  and  _128
REMARK   53  A    between atoms: _128  and  _129
REMARK   54  A    between atoms: _128  and  _131
REMARK   55  A    between atoms: _131  and  _132
REMARK   56  A    between atoms: _132  and  _133
REMARK   57  A    between atoms: _135  and  _137
REMARK   58  A    between atoms: _137  and  _138
REMARK   59  A    between atoms: _137  and  _140
REMARK   60  A    between atoms: _140  and  _141
REMARK   61  A    between atoms: _141  and  _142
REMARK   62  A    between atoms: _142  and  _143
REMARK   63  A    between atoms: _143  and  _144
REMARK   64  A    between atoms: _148  and  _150
REMARK   65  A    between atoms: _150  and  _151
REMARK   66  A    between atoms: _150  and  _153
REMARK   67  A    between atoms: _153  and  _154
REMARK   68  A    between atoms: _157  and  _159
REMARK   69  A    between atoms: _159  and  _160
REMARK   70  A    between atoms: _159  and  _162
REMARK   71  A    between atoms: _162  and  _163
REMARK   72  A    between atoms: _166  and  _168
REMARK   73  A    between atoms: _168  and  _169
REMARK   74  A    between atoms: _168  and  _171
REMARK   75  A    between atoms: _171  and  _172
REMARK   76  A    between atoms: _175  and  _177
REMARK   77  A    between atoms: _177  and  _178
REMARK   78  A    between atoms: _177  and  _180
REMARK   79  A    between atoms: _180  and  _181
REMARK   80  A    between atoms: _181  and  _182
REMARK   81  A    between atoms: _182  and  _183
REMARK   82  A    between atoms: _183  and  _184
REMARK   83  A    between atoms: _188  and  _190
REMARK   84  A    between atoms: _190  and  _191
REMARK   85  A    between atoms: _190  and  _193
REMARK   86  A    between atoms: _196  and  _198
REMARK   87  A    between atoms: _198  and  _199
REMARK   88  A    between atoms: _198  and  _201
REMARK   89  A    between atoms: _201  and  _202
REMARK   90  A    between atoms: _205  and  _207
REMARK   91  A    between atoms: _207  and  _208
REMARK   92  A    between atoms: _207  and  _210
REMARK   93  A    between atoms: _210  and  _211
REMARK   94  A    between atoms: _211  and  _212
REMARK   95  A    between atoms: _212  and  _213
REMARK   96  A    between atoms: _213  and  _214
REMARK   97  A    between atoms: _218  and  _220
REMARK   98  A    between atoms: _220  and  _221
REMARK   99  A    between atoms: _220  and  _223
REMARK  100  A    between atoms: _223  and  _224
REMARK  101  A    between atoms: _224  and  _225
REMARK  102  A    between atoms: _228  and  _230
REMARK  103  A    between atoms: _230  and  _231
REMARK  104  A    between atoms: _230  and  _233
REMARK  105  A    between atoms: _233  and  _234
REMARK  106  A    between atoms: _237  and  _239
REMARK  107  A    between atoms: _239  and  _240
REMARK  108  A    between atoms: _239  and  _242
REMARK  109  A    between atoms: _242  and  _243
REMARK  110  A    between atoms: _243  and  _244
REMARK  111  A    between atoms: _247  and  _249
REMARK  112  A    between atoms: _249  and  _250
REMARK  113  A    between atoms: _249  and  _252
REMARK  114  A    between atoms: _252  and  _253
REMARK  115  A    between atoms: _258  and  _260
REMARK  116  A    between atoms: _260  and  _261
REMARK  117  A    between atoms: _260  and  _263
REMARK  118  A    between atoms: _263  and  _264
REMARK  119  A    between atoms: _267  and  _269
REMARK  120  A    between atoms: _269  and  _270
REMARK  121  A    between atoms: _269  and  _272
REMARK  122  A    between atoms: _272  and  _273
REMARK  123  A    between atoms: _276  and  _278
REMARK  124  A    between atoms: _278  and  _279
REMARK  125  A    between atoms: _278  and  _281
REMARK  126  A    between atoms: _281  and  _282
REMARK  127  A    between atoms: _287  and  _289
REMARK  128  A    between atoms: _289  and  _290
REMARK  129  A    between atoms: _289  and  _292
REMARK  130  A    between atoms: _292  and  _293
REMARK  131  A    between atoms: _293  and  _294
REMARK  132  A    between atoms: _297  and  _299
REMARK  133  A    between atoms: _299  and  _300
REMARK  134  A    between atoms: _299  and  _302
REMARK  135  A    between atoms: _302  and  _303
REMARK  136  A    between atoms: _303  and  _304
REMARK  137  A    between atoms: _304  and  _305
REMARK  138  A    between atoms: _305  and  _306
REMARK  139  A    between atoms: _310  and  _312
REMARK  140  A    between atoms: _312  and  _313
REMARK  141  A    between atoms: _312  and  _315
REMARK  142  A    between atoms: _315  and  _316
REMARK  143  A    between atoms: _319  and  _321
REMARK  144  A    between atoms: _321  and  _322
REMARK  145  A    between atoms: _321  and  _324
REMARK  146  A    between atoms: _327  and  _329
REMARK  147  A    between atoms: _329  and  _330
REMARK  148  A    between atoms: _329  and  _332
REMARK  149  A    between atoms: _332  and  _333
REMARK  150  A    between atoms: _333  and  _334
REMARK  151  A    between atoms: _334  and  _335
REMARK  152  A    between atoms: _335  and  _336
REMARK  153  A    between atoms: _340  and  _342
REMARK  154  A    between atoms: _342  and  _343
REMARK  155  A    between atoms: _342  and  _345
REMARK  156  A    between atoms: _345  and  _346
REMARK  157  A    between atoms: _349  and  _351
REMARK  158  A    between atoms: _351  and  _352
REMARK  159  A    between atoms: _351  and  _354
REMARK  160  A    between atoms: _354  and  _355
REMARK  161  A    between atoms: _355  and  _356
REMARK  162  A    between atoms: _358  and  _360
REMARK  163  A    between atoms: _360  and  _361
REMARK  164  A    between atoms: _360  and  _363
REMARK  165  A    between atoms: _363  and  _364
REMARK  166  A    between atoms: _364  and  _365
REMARK  167  A    between atoms: _367  and  _369
REMARK  168  A    between atoms: _369  and  _370
REMARK  169  A    between atoms: _369  and  _372
REMARK  170  A    between atoms: _372  and  _373
REMARK  171  A    between atoms: _373  and  _374
REMARK  172  A    between atoms: _377  and  _379
REMARK  173  A    between atoms: _379  and  _380
REMARK  174  A    between atoms: _379  and  _382
REMARK  175  A    between atoms: _382  and  _383
REMARK  176  A    between atoms: _388  and  _389
REMARK  177  A    between atoms: _391  and  _393
REMARK  178  A    between atoms: _393  and  _394
REMARK  179  A    between atoms: _398  and  _399
REMARK  180  A    between atoms: _404  and  _406
REMARK  181  A    between atoms: _406  and  _407
REMARK  182  A    between atoms: _409  and  _411
REMARK  183  A    between atoms: _411  and  _412
REMARK  184  A    between atoms: _414  and  _416
REMARK  185  A    between atoms: _416  and  _417
REMARK  186  A    between atoms: _416  and  _419
REMARK  187  A    between atoms: _419  and  _420
REMARK  188  A    between atoms: _420  and  _421
REMARK  189  A    between atoms: _424  and  _426
REMARK  190  A    between atoms: _426  and  _427
REMARK  191  A    between atoms: _426  and  _429
REMARK  192  A    between atoms: _429  and  _430
REMARK  193  A    between atoms: _430  and  _431
REMARK  194  A    between atoms: _433  and  _435
REMARK  195  A    between atoms: _435  and  _436
REMARK  196  A    between atoms: _435  and  _438
REMARK  197  A    between atoms: _438  and  _439
REMARK  198  A    between atoms: _445  and  _447
REMARK  199  A    between atoms: _447  and  _448
REMARK  200  A    between atoms: _447  and  _450
REMARK  201  A    between atoms: _450  and  _451
REMARK  202  A    between atoms: _456  and  _457
REMARK  203  A    between atoms: _459  and  _461
REMARK  204  A    between atoms: _461  and  _462
REMARK  205  A    between atoms: _461  and  _464
REMARK  206  A    between atoms: _464  and  _465
REMARK  207  A    between atoms: _468  and  _470
REMARK  208  A    between atoms: _470  and  _471
REMARK  209  A    between atoms: _470  and  _473
REMARK  210  A    between atoms: _473  and  _474
REMARK  211  A    between atoms: _474  and  _475
REMARK  212  A    between atoms: _475  and  _476
REMARK  213  A    between atoms: _476  and  _477
REMARK  214  A    between atoms: _482  and  _483
REMARK  215  A    between atoms: _488  and  _490
REMARK  216  A    between atoms: _490  and  _491
REMARK  217  A    between atoms: _490  and  _493
REMARK  218  A    between atoms: _493  and  _494
REMARK  219  A    between atoms: _494  and  _495
REMARK  220  A    between atoms: _498  and  _500
REMARK  221  A    between atoms: _500  and  _501
REMARK  222  A    between atoms: _500  and  _503
REMARK  223  A    between atoms: _503  and  _504
REMARK  224  A    between atoms: _509  and  _511
REMARK  225  A    between atoms: _511  and  _512
REMARK  226  A    between atoms: _511  and  _514
REMARK  227  A    between atoms: _514  and  _515
REMARK  228  A    between atoms: _518  and  _520
REMARK  229  A    between atoms: _520  and  _521
REMARK  230  A    between atoms: _520  and  _523
REMARK  231  A    between atoms: _523  and  _524
REMARK  232  A    between atoms: _524  and  _525
REMARK  233  A    between atoms: _527  and  _529
REMARK  234  A    between atoms: _529  and  _530
REMARK  235  A    between atoms: _529  and  _532
REMARK  236  A    between atoms: _532  and  _533
REMARK  237  A    between atoms: _536  and  _538
REMARK  238  A    between atoms: _538  and  _539
REMARK  239  A    between atoms: _538  and  _541
REMARK  240  A    between atoms: _541  and  _542
REMARK  241  A    between atoms: _542  and  _543
REMARK  242  A    between atoms: _543  and  _544
REMARK  243  A    between atoms: _544  and  _545
REMARK  244  A    between atoms: _549  and  _551
REMARK  245  A    between atoms: _551  and  _552
REMARK  246  A    between atoms: _551  and  _554
REMARK  247  A    between atoms: _557  and  _559
REMARK  248  A    between atoms: _559  and  _560
REMARK  249  A    between atoms: _559  and  _562
REMARK  250  A    between atoms: _562  and  _563
REMARK  251  A    between atoms: _566  and  _568
REMARK  252  A    between atoms: _568  and  _569
REMARK  253  A    between atoms: _568  and  _571
REMARK  254  A    between atoms: _571  and  _572
REMARK  255  A    between atoms: _575  and  _577
REMARK  256  A    between atoms: _577  and  _578
REMARK  257  A    between atoms: _577  and  _580
REMARK  258  A    between atoms: _580  and  _581
REMARK  259  A    between atoms: _587  and  _589
REMARK  260  A    between atoms: _589  and  _590
REMARK  261  A    between atoms: _592  and  _594
REMARK  262  A    between atoms: _594  and  _595
REMARK  263  A    between atoms: _594  and  _597
REMARK  264  A    between atoms: _597  and  _598
REMARK  265  A    between atoms: _601  and  _603
REMARK  266  A    between atoms: _603  and  _604
REMARK  267  A    between atoms: _607  and  _609
REMARK  268  A    between atoms: _609  and  _610
REMARK  269  A    between atoms: _609  and  _612
REMARK  270  A    between atoms: _614  and  _616
REMARK  271  A    between atoms: _616  and  _617
REMARK  272  A    between atoms: _619  and  _621
REMARK  273  A    between atoms: _621  and  _622
REMARK  274  A    between atoms: _621  and  _624
REMARK  275  A    between atoms: _624  and  _625
REMARK  276  A    between atoms: _631  and  _633
REMARK  277  A    between atoms: _633  and  _634
REMARK  278  A    between atoms: _633  and  _636
REMARK  279  A    between atoms: _636  and  _637
REMARK  280  A    between atoms: _642  and  _643
REMARK                            x       y       z     vdW  Elec       q    Type
REMARK                         _______ _______ _______ _____ _____    ______ ____
ROOT
ATOM      1  CG  TYR A   1       0.899  31.737  11.524  0.00  0.00    -0.020 A 
ATOM      2  CD2 TYR A   1       0.354  32.905  12.036  0.00  0.00    -0.001 A 
ATOM      3  CE2 TYR A   1       1.089  34.062  12.096  0.00  0.00    +0.036 A 
ATOM      4  CZ  TYR A   1       2.390  34.089  11.685  0.00  0.00    +0.134 A 
ATOM      5  CE1 TYR A   1       2.977  32.954  11.166  0.00  0.00    +0.036 A 
ATOM      6  CD1 TYR A   1       2.221  31.771  11.096  0.00  0.00    -0.001 A 
ENDROOT
BRANCH   4   7
ATOM      7  OH  TYR A   1       3.086  35.277  11.806  0.00  0.00    -0.506 OA
ATOM      8  HH  TYR A   1       4.010  35.152  11.472  0.00  0.00    +0.292 HD
ENDBRANCH   4   7
BRANCH   1   9
ATOM      9  CB  TYR A   1       0.095  30.467  11.505  0.00  0.00    +0.051 C 
BRANCH   9  10
ATOM     10  CA  TYR A   1       0.707  29.385  12.410  0.00  0.00    +0.137 C 
BRANCH  10  11
ATOM     11  N   TYR A   1      -0.161  28.212  12.423  0.00  0.00    -0.239 NA
ATOM     12  H   TYR A   1      -1.184  28.327  12.272  0.00  0.00    +0.142 HD
ENDBRANCH  10  11
BRANCH  10  13
ATOM     13  C   TYR A   1       1.006  29.944  13.820  0.00  0.00    +0.224 C 
ATOM     14  O   TYR A   1       2.149  30.260  14.149  0.00  0.00    -0.287 OA
ENDBRANCH  10  13
ENDBRANCH   9  10
ENDBRANCH   1   9
TORSDOF 5
REMARK  Name = ../refined-set-2016/1xh9/1xh9_pocket.pdb
REMARK  280 active torsions:
REMARK  status: ('A' for Active; 'I' for Inactive)
REMARK    1  A    between atoms: _1  and  _3
REMARK    2  A    between atoms: _3  and  _4
REMARK    3  A    between atoms: _3  and  _6
REMARK    4  A    between atoms: _6  and  _7
REMARK    5  A    between atoms: _10  and  _12
REMARK    6  A    between atoms: _12  and  _13
REMARK    7  A    between atoms: _12  and  _15
REMARK    8  A    between atoms: _15  and  _16
REMARK    9  A    between atoms: _19  and  _21
REMARK   10  A    between atoms: _21  and  _22
REMARK   11  A    between atoms: _24  and  _26
REMARK   12  A    between atoms: _26  and  _27
REMARK   13  A    between atoms: _26  and  _29
REMARK   14  A    between atoms: _29  and  _30
REMARK   15  A    between atoms: _33  and  _35
REMARK   16  A    between atoms: _35  and  _36
REMARK   17  A    between atoms: _38  and  _40
REMARK   18  A    between atoms: _40  and  _41
REMARK   19  A    between atoms: _40  and  _43
REMARK   20  A    between atoms: _43  and  _44
REMARK   21  A    between atoms: _46  and  _48
REMARK   22  A    between atoms: _48  and  _49
REMARK   23  A    between atoms: _48  and  _51
REMARK   24  A    between atoms: _51  and  _52
REMARK   25  A    between atoms: _58  and  _60
REMARK   26  A    between atoms: _60  and  _61
REMARK   27  A    between atoms: _63  and  _65
REMARK   28  A    between atoms: _65  and  _66
REMARK   29  A    between atoms: _65  and  _68
REMARK   30  A    between atoms: _68  and  _69
REMARK   31  A    between atoms: _69  and  _70
REMARK   32  A    between atoms: _70  and  _71
REMARK   33  A    between atoms: _80  and  _82
REMARK   34  A    between atoms: _82  and  _83
REMARK   35  A    between atoms: _82  and  _85
REMARK   36  A    between atoms: _88  and  _90
REMARK   37  A    between atoms: _90  and  _91
REMARK   38  A    between atoms: _90  and  _93
REMARK   39  A    between atoms: _93  and  _94
REMARK   40  A    between atoms: _94  and  _95
REMARK   41  A    between atoms: _97  and  _99
REMARK   42  A    between atoms: _99  and  _100
REMARK   43  A    between atoms: _99  and  _102
REMARK   44  A    between atoms: _102  and  _103
REMARK   45  A    between atoms: _106  and  _108
REMARK   46  A    between atoms: _108  and  _109
REMARK   47  A    between atoms: _108  and  _111
REMARK   48  A    between atoms: _111  and  _112
REMARK   49  A    between atoms: _117  and  _118
REMARK   50  A    between atoms: _120  and  _122
REMARK   51  A    between atoms: _122  and  _123
REMARK   52  A    between atoms: _126  and  _128
REMARK   53  A    between atoms: _128  and  _129
REMARK   54  A    between atoms: _128  and  _131
REMARK   55  A    between atoms: _131  and  _132
REMARK   56  A    between atoms: _132  and  _133
REMARK   57  A    between atoms: _135  and  _137
REMARK   58  A    between atoms: _137  and  _138
REMARK   59  A    between atoms: _137  and  _140
REMARK   60  A    between atoms: _140  and  _141
REMARK   61  A    between atoms: _141  and  _142
REMARK   62  A    between atoms: _142  and  _143
REMARK   63  A    between atoms: _143  and  _144
REMARK   64  A    between atoms: _148  and  _150
REMARK   65  A    between atoms: _150  and  _151
REMARK   66  A    between atoms: _150  and  _153
REMARK   67  A    between atoms: _153  and  _154
REMARK   68  A    between atoms: _157  and  _159
REMARK   69  A    between atoms: _159  and  _160
REMARK   70  A    between atoms: _159  and  _162
REMARK   71  A    between atoms: _162  and  _163
REMARK   72  A    between atoms: _166  and  _168
REMARK   73  A    between atoms: _168  and  _169
REMARK   74  A    between atoms: _168  and  _171
REMARK   75  A    between atoms: _171  and  _172
REMARK   76  A    between atoms: _175  and  _177
REMARK   77  A    between atoms: _177  and  _178
REMARK   78  A    between atoms: _177  and  _180
REMARK   79  A    between atoms: _180  and  _181
REMARK   80  A    between atoms: _181  and  _182
REMARK   81  A    between atoms: _182  and  _183
REMARK   82  A    between atoms: _183  and  _184
REMARK   83  A    between atoms: _188  and  _190
REMARK   84  A    between atoms: _190  and  _191
REMARK   85  A    between atoms: _190  and  _193
REMARK   86  A    between atoms: _196  and  _198
REMARK   87  A    between atoms: _198  and  _199
REMARK   88  A    between atoms: _198  and  _201
REMARK   89  A    between atoms: _201  and  _202
REMARK   90  A    between atoms: _205  and  _207
REMARK   91  A    between atoms: _207  and  _208
REMARK   92  A    between atoms: _207  and  _210
REMARK   93  A    between atoms: _210  and  _211
REMARK   94  A    between atoms: _211  and  _212
REMARK   95  A    between atoms: _212  and  _213
REMARK   96  A    between atoms: _213  and  _214
REMARK   97  A    between atoms: _218  and  _220
REMARK   98  A    between atoms: _220  and  _221
REMARK   99  A    between atoms: _220  and  _223
REMARK  100  A    between atoms: _223  and  _224
REMARK  101  A    between atoms: _224  and  _225
REMARK  102  A    between atoms: _228  and  _230
REMARK  103  A    between atoms: _230  and  _231
REMARK  104  A    between atoms: _230  and  _233
REMARK  105  A    between atoms: _233  and  _234
REMARK  106  A    between atoms: _237  and  _239
REMARK  107  A    between atoms: _239  and  _240
REMARK  108  A    between atoms: _239  and  _242
REMARK  109  A    between atoms: _242  and  _243
REMARK  110  A    between atoms: _243  and  _244
REMARK  111  A    between atoms: _247  and  _249
REMARK  112  A    between atoms: _249  and  _250
REMARK  113  A    between atoms: _249  and  _252
REMARK  114  A    between atoms: _252  and  _253
REMARK  115  A    between atoms: _258  and  _260
REMARK  116  A    between atoms: _260  and  _261
REMARK  117  A    between atoms: _260  and  _263
REMARK  118  A    between atoms: _263  and  _264
REMARK  119  A    between atoms: _267  and  _269
REMARK  120  A    between atoms: _269  and  _270
REMARK  121  A    between atoms: _269  and  _272
REMARK  122  A    between atoms: _272  and  _273
REMARK  123  A    between atoms: _276  and  _278
REMARK  124  A    between atoms: _278  and  _279
REMARK  125  A    between atoms: _278  and  _281
REMARK  126  A    between atoms: _281  and  _282
REMARK  127  A    between atoms: _287  and  _289
REMARK  128  A    between atoms: _289  and  _290
REMARK  129  A    between atoms: _289  and  _292
REMARK  130  A    between atoms: _292  and  _293
REMARK  131  A    between atoms: _293  and  _294
REMARK  132  A    between atoms: _297  and  _299
REMARK  133  A    between atoms: _299  and  _300
REMARK  134  A    between atoms: _299  and  _302
REMARK  135  A    between atoms: _302  and  _303
REMARK  136  A    between atoms: _303  and  _304
REMARK  137  A    between atoms: _304  and  _305
REMARK  138  A    between atoms: _305  and  _306
REMARK  139  A    between atoms: _310  and  _312
REMARK  140  A    between atoms: _312  and  _313
REMARK  141  A    between atoms: _312  and  _315
REMARK  142  A    between atoms: _315  and  _316
REMARK  143  A    between atoms: _319  and  _321
REMARK  144  A    between atoms: _321  and  _322
REMARK  145  A    between atoms: _321  and  _324
REMARK  146  A    between atoms: _327  and  _329
REMARK  147  A    between atoms: _329  and  _330
REMARK  148  A    between atoms: _329  and  _332
REMARK  149  A    between atoms: _332  and  _333
REMARK  150  A    between atoms: _333  and  _334
REMARK  151  A    between atoms: _334  and  _335
REMARK  152  A    between atoms: _335  and  _336
REMARK  153  A    between atoms: _340  and  _342
REMARK  154  A    between atoms: _342  and  _343
REMARK  155  A    between atoms: _342  and  _345
REMARK  156  A    between atoms: _345  and  _346
REMARK  157  A    between atoms: _349  and  _351
REMARK  158  A    between atoms: _351  and  _352
REMARK  159  A    between atoms: _351  and  _354
REMARK  160  A    between atoms: _354  and  _355
REMARK  161  A    between atoms: _355  and  _356
REMARK  162  A    between atoms: _358  and  _360
REMARK  163  A    between atoms: _360  and  _361
REMARK  164  A    between atoms: _360  and  _363
REMARK  165  A    between atoms: _363  and  _364
REMARK  166  A    between atoms: _364  and  _365
REMARK  167  A    between atoms: _367  and  _369
REMARK  168  A    between atoms: _369  and  _370
REMARK  169  A    between atoms: _369  and  _372
REMARK  170  A    between atoms: _372  and  _373
REMARK  171  A    between atoms: _373  and  _374
REMARK  172  A    between atoms: _377  and  _379
REMARK  173  A    between atoms: _379  and  _380
REMARK  174  A    between atoms: _379  and  _382
REMARK  175  A    between atoms: _382  and  _383
REMARK  176  A    between atoms: _388  and  _389
REMARK  177  A    between atoms: _391  and  _393
REMARK  178  A    between atoms: _393  and  _394
REMARK  179  A    between atoms: _398  and  _399
REMARK  180  A    between atoms: _404  and  _406
REMARK  181  A    between atoms: _406  and  _407
REMARK  182  A    between atoms: _409  and  _411
REMARK  183  A    between atoms: _411  and  _412
REMARK  184  A    between atoms: _414  and  _416
REMARK  185  A    between atoms: _416  and  _417
REMARK  186  A    between atoms: _416  and  _419
REMARK  187  A    between atoms: _419  and  _420
REMARK  188  A    between atoms: _420  and  _421
REMARK  189  A    between atoms: _424  and  _426
REMARK  190  A    between atoms: _426  and  _427
REMARK  191  A    between atoms: _426  and  _429
REMARK  192  A    between atoms: _429  and  _430
REMARK  193  A    between atoms: _430  and  _431
REMARK  194  A    between atoms: _433  and  _435
REMARK  195  A    between atoms: _435  and  _436
REMARK  196  A    between atoms: _435  and  _438
REMARK  197  A    between atoms: _438  and  _439
REMARK  198  A    between atoms: _445  and  _447
REMARK  199  A    between atoms: _447  and  _448
REMARK  200  A    between atoms: _447  and  _450
REMARK  201  A    between atoms: _450  and  _451
REMARK  202  A    between atoms: _456  and  _457
REMARK  203  A    between atoms: _459  and  _461
REMARK  204  A    between atoms: _461  and  _462
REMARK  205  A    between atoms: _461  and  _464
REMARK  206  A    between atoms: _464  and  _465
REMARK  207  A    between atoms: _468  and  _470
REMARK  208  A    between atoms: _470  and  _471
REMARK  209  A    between atoms: _470  and  _473
REMARK  210  A    between atoms: _473  and  _474
REMARK  211  A    between atoms: _474  and  _475
REMARK  212  A    between atoms: _475  and  _476
REMARK  213  A    between atoms: _476  and  _477
REMARK  214  A    between atoms: _482  and  _483
REMARK  215  A    between atoms: _488  and  _490
REMARK  216  A    between atoms: _490  and  _491
REMARK  217  A    between atoms: _490  and  _493
REMARK  218  A    between atoms: _493  and  _494
REMARK  219  A    between atoms: _494  and  _495
REMARK  220  A    between atoms: _498  and  _500
REMARK  221  A    between atoms: _500  and  _501
REMARK  222  A    between atoms: _500  and  _503
REMARK  223  A    between atoms: _503  and  _504
REMARK  224  A    between atoms: _509  and  _511
REMARK  225  A    between atoms: _511  and  _512
REMARK  226  A    between atoms: _511  and  _514
REMARK  227  A    between atoms: _514  and  _515
REMARK  228  A    between atoms: _518  and  _520
REMARK  229  A    between atoms: _520  and  _521
REMARK  230  A    between atoms: _520  and  _523
REMARK  231  A    between atoms: _523  and  _524
REMARK  232  A    between atoms: _524  and  _525
REMARK  233  A    between atoms: _527  and  _529
REMARK  234  A    between atoms: _529  and  _530
REMARK  235  A    between atoms: _529  and  _532
REMARK  236  A    between atoms: _532  and  _533
REMARK  237  A    between atoms: _536  and  _538
REMARK  238  A    between atoms: _538  and  _539
REMARK  239  A    between atoms: _538  and  _541
REMARK  240  A    between atoms: _541  and  _542
REMARK  241  A    between atoms: _542  and  _543
REMARK  242  A    between atoms: _543  and  _544
REMARK  243  A    between atoms: _544  and  _545
REMARK  244  A    between atoms: _549  and  _551
REMARK  245  A    between atoms: _551  and  _552
REMARK  246  A    between atoms: _551  and  _554
REMARK  247  A    between atoms: _557  and  _559
REMARK  248  A    between atoms: _559  and  _560
REMARK  249  A    between atoms: _559  and  _562
REMARK  250  A    between atoms: _562  and  _563
REMARK  251  A    between atoms: _566  and  _568
REMARK  252  A    between atoms: _568  and  _569
REMARK  253  A    between atoms: _568  and  _571
REMARK  254  A    between atoms: _571  and  _572
REMARK  255  A    between atoms: _575  and  _577
REMARK  256  A    between atoms: _577  and  _578
REMARK  257  A    between atoms: _577  and  _580
REMARK  258  A    between atoms: _580  and  _581
REMARK  259  A    between atoms: _587  and  _589
REMARK  260  A    between atoms: _589  and  _590
REMARK  261  A    between atoms: _592  and  _594
REMARK  262  A    between atoms: _594  and  _595
REMARK  263  A    between atoms: _594  and  _597
REMARK  264  A    between atoms: _597  and  _598
REMARK  265  A    between atoms: _601  and  _603
REMARK  266  A    between atoms: _603  and  _604
REMARK  267  A    between atoms: _607  and  _609
REMARK  268  A    between atoms: _609  and  _610
REMARK  269  A    between atoms: _609  and  _612
REMARK  270  A    between atoms: _614  and  _616
REMARK  271  A    between atoms: _616  and  _617
REMARK  272  A    between atoms: _619  and  _621
REMARK  273  A    between atoms: _621  and  _622
REMARK  274  A    between atoms: _621  and  _624
REMARK  275  A    between atoms: _624  and  _625
REMARK  276  A    between atoms: _631  and  _633
REMARK  277  A    between atoms: _633  and  _634
REMARK  278  A    between atoms: _633  and  _636
REMARK  279  A    between atoms: _636  and  _637
REMARK  280  A    between atoms: _642  and  _643
REMARK                            x       y       z     vdW  Elec       q    Type
REMARK                         _______ _______ _______ _____ _____    ______ ____
ROOT
ATOM      1  CA  ASP A   1       1.124  34.097  15.990  0.00  0.00    +0.144 C 
ENDROOT
BRANCH   1   2
ATOM      2  N   ASP A   1       0.729  32.757  15.565  0.00  0.00    -0.239 NA
ATOM      3  H   ASP A   1       0.607  32.543  14.555  0.00  0.00    +0.142 HD
ENDBRANCH   1   2
BRANCH   1   4
ATOM      4  C   ASP A   1       0.542  35.205  15.128  0.00  0.00    +0.225 C 
ATOM      5  O   ASP A   1       1.215  36.171  14.785  0.00  0.00    -0.287 OA
ENDBRANCH   1   4
BRANCH   1   6
ATOM      6  CB  ASP A   1       2.650  34.208  16.062  0.00  0.00    +0.139 C 
BRANCH   6   7
ATOM      7  CG  ASP A   1       3.112  35.293  17.025  0.00  0.00    +0.367 C 
ATOM      8  OD2 ASP A   1       2.305  35.798  17.860  0.00  0.00    -0.246 OA
ATOM      9  OD1 ASP A   1       4.283  35.719  16.982  0.00  0.00    -0.246 OA
ENDBRANCH   6   7
ENDBRANCH   1   6
TORSDOF 4
REMARK  Name = ../refined-set-2016/1xh9/1xh9_pocket.pdb
REMARK  280 active torsions:
REMARK  status: ('A' for Active; 'I' for Inactive)
REMARK    1  A    between atoms: _1  and  _3
REMARK    2  A    between atoms: _3  and  _4
REMARK    3  A    between atoms: _3  and  _6
REMARK    4  A    between atoms: _6  and  _7
REMARK    5  A    between atoms: _10  and  _12
REMARK    6  A    between atoms: _12  and  _13
REMARK    7  A    between atoms: _12  and  _15
REMARK    8  A    between atoms: _15  and  _16
REMARK    9  A    between atoms: _19  and  _21
REMARK   10  A    between atoms: _21  and  _22
REMARK   11  A    between atoms: _24  and  _26
REMARK   12  A    between atoms: _26  and  _27
REMARK   13  A    between atoms: _26  and  _29
REMARK   14  A    between atoms: _29  and  _30
REMARK   15  A    between atoms: _33  and  _35
REMARK   16  A    between atoms: _35  and  _36
REMARK   17  A    between atoms: _38  and  _40
REMARK   18  A    between atoms: _40  and  _41
REMARK   19  A    between atoms: _40  and  _43
REMARK   20  A    between atoms: _43  and  _44
REMARK   21  A    between atoms: _46  and  _48
REMARK   22  A    between atoms: _48  and  _49
REMARK   23  A    between atoms: _48  and  _51
REMARK   24  A    between atoms: _51  and  _52
REMARK   25  A    between atoms: _58  and  _60
REMARK   26  A    between atoms: _60  and  _61
REMARK   27  A    between atoms: _63  and  _65
REMARK   28  A    between atoms: _65  and  _66
REMARK   29  A    between atoms: _65  and  _68
REMARK   30  A    between atoms: _68  and  _69
REMARK   31  A    between atoms: _69  and  _70
REMARK   32  A    between atoms: _70  and  _71
REMARK   33  A    between atoms: _80  and  _82
REMARK   34  A    between atoms: _82  and  _83
REMARK   35  A    between atoms: _82  and  _85
REMARK   36  A    between atoms: _88  and  _90
REMARK   37  A    between atoms: _90  and  _91
REMARK   38  A    between atoms: _90  and  _93
REMARK   39  A    between atoms: _93  and  _94
REMARK   40  A    between atoms: _94  and  _95
REMARK   41  A    between atoms: _97  and  _99
REMARK   42  A    between atoms: _99  and  _100
REMARK   43  A    between atoms: _99  and  _102
REMARK   44  A    between atoms: _102  and  _103
REMARK   45  A    between atoms: _106  and  _108
REMARK   46  A    between atoms: _108  and  _109
REMARK   47  A    between atoms: _108  and  _111
REMARK   48  A    between atoms: _111  and  _112
REMARK   49  A    between atoms: _117  and  _118
REMARK   50  A    between atoms: _120  and  _122
REMARK   51  A    between atoms: _122  and  _123
REMARK   52  A    between atoms: _126  and  _128
REMARK   53  A    between atoms: _128  and  _129
REMARK   54  A    between atoms: _128  and  _131
REMARK   55  A    between atoms: _131  and  _132
REMARK   56  A    between atoms: _132  and  _133
REMARK   57  A    between atoms: _135  and  _137
REMARK   58  A    between atoms: _137  and  _138
REMARK   59  A    between atoms: _137  and  _140
REMARK   60  A    between atoms: _140  and  _141
REMARK   61  A    between atoms: _141  and  _142
REMARK   62  A    between atoms: _142  and  _143
REMARK   63  A    between atoms: _143  and  _144
REMARK   64  A    between atoms: _148  and  _150
REMARK   65  A    between atoms: _150  and  _151
REMARK   66  A    between atoms: _150  and  _153
REMARK   67  A    between atoms: _153  and  _154
REMARK   68  A    between atoms: _157  and  _159
REMARK   69  A    between atoms: _159  and  _160
REMARK   70  A    between atoms: _159  and  _162
REMARK   71  A    between atoms: _162  and  _163
REMARK   72  A    between atoms: _166  and  _168
REMARK   73  A    between atoms: _168  and  _169
REMARK   74  A    between atoms: _168  and  _171
REMARK   75  A    between atoms: _171  and  _172
REMARK   76  A    between atoms: _175  and  _177
REMARK   77  A    between atoms: _177  and  _178
REMARK   78  A    between atoms: _177  and  _180
REMARK   79  A    between atoms: _180  and  _181
REMARK   80  A    between atoms: _181  and  _182
REMARK   81  A    between atoms: _182  and  _183
REMARK   82  A    between atoms: _183  and  _184
REMARK   83  A    between atoms: _188  and  _190
REMARK   84  A    between atoms: _190  and  _191
REMARK   85  A    between atoms: _190  and  _193
REMARK   86  A    between atoms: _196  and  _198
REMARK   87  A    between atoms: _198  and  _199
REMARK   88  A    between atoms: _198  and  _201
REMARK   89  A    between atoms: _201  and  _202
REMARK   90  A    between atoms: _205  and  _207
REMARK   91  A    between atoms: _207  and  _208
REMARK   92  A    between atoms: _207  and  _210
REMARK   93  A    between atoms: _210  and  _211
REMARK   94  A    between atoms: _211  and  _212
REMARK   95  A    between atoms: _212  and  _213
REMARK   96  A    between atoms: _213  and  _214
REMARK   97  A    between atoms: _218  and  _220
REMARK   98  A    between atoms: _220  and  _221
REMARK   99  A    between atoms: _220  and  _223
REMARK  100  A    between atoms: _223  and  _224
REMARK  101  A    between atoms: _224  and  _225
REMARK  102  A    between atoms: _228  and  _230
REMARK  103  A    between atoms: _230  and  _231
REMARK  104  A    between atoms: _230  and  _233
REMARK  105  A    between atoms: _233  and  _234
REMARK  106  A    between atoms: _237  and  _239
REMARK  107  A    between atoms: _239  and  _240
REMARK  108  A    between atoms: _239  and  _242
REMARK  109  A    between atoms: _242  and  _243
REMARK  110  A    between atoms: _243  and  _244
REMARK  111  A    between atoms: _247  and  _249
REMARK  112  A    between atoms: _249  and  _250
REMARK  113  A    between atoms: _249  and  _252
REMARK  114  A    between atoms: _252  and  _253
REMARK  115  A    between atoms: _258  and  _260
REMARK  116  A    between atoms: _260  and  _261
REMARK  117  A    between atoms: _260  and  _263
REMARK  118  A    between atoms: _263  and  _264
REMARK  119  A    between atoms: _267  and  _269
REMARK  120  A    between atoms: _269  and  _270
REMARK  121  A    between atoms: _269  and  _272
REMARK  122  A    between atoms: _272  and  _273
REMARK  123  A    between atoms: _276  and  _278
REMARK  124  A    between atoms: _278  and  _279
REMARK  125  A    between atoms: _278  and  _281
REMARK  126  A    between atoms: _281  and  _282
REMARK  127  A    between atoms: _287  and  _289
REMARK  128  A    between atoms: _289  and  _290
REMARK  129  A    between atoms: _289  and  _292
REMARK  130  A    between atoms: _292  and  _293
REMARK  131  A    between atoms: _293  and  _294
REMARK  132  A    between atoms: _297  and  _299
REMARK  133  A    between atoms: _299  and  _300
REMARK  134  A    between atoms: _299  and  _302
REMARK  135  A    between atoms: _302  and  _303
REMARK  136  A    between atoms: _303  and  _304
REMARK  137  A    between atoms: _304  and  _305
REMARK  138  A    between atoms: _305  and  _306
REMARK  139  A    between atoms: _310  and  _312
REMARK  140  A    between atoms: _312  and  _313
REMARK  141  A    between atoms: _312  and  _315
REMARK  142  A    between atoms: _315  and  _316
REMARK  143  A    between atoms: _319  and  _321
REMARK  144  A    between atoms: _321  and  _322
REMARK  145  A    between atoms: _321  and  _324
REMARK  146  A    between atoms: _327  and  _329
REMARK  147  A    between atoms: _329  and  _330
REMARK  148  A    between atoms: _329  and  _332
REMARK  149  A    between atoms: _332  and  _333
REMARK  150  A    between atoms: _333  and  _334
REMARK  151  A    between atoms: _334  and  _335
REMARK  152  A    between atoms: _335  and  _336
REMARK  153  A    between atoms: _340  and  _342
REMARK  154  A    between atoms: _342  and  _343
REMARK  155  A    between atoms: _342  and  _345
REMARK  156  A    between atoms: _345  and  _346
REMARK  157  A    between atoms: _349  and  _351
REMARK  158  A    between atoms: _351  and  _352
REMARK  159  A    between atoms: _351  and  _354
REMARK  160  A    between atoms: _354  and  _355
REMARK  161  A    between atoms: _355  and  _356
REMARK  162  A    between atoms: _358  and  _360
REMARK  163  A    between atoms: _360  and  _361
REMARK  164  A    between atoms: _360  and  _363
REMARK  165  A    between atoms: _363  and  _364
REMARK  166  A    between atoms: _364  and  _365
REMARK  167  A    between atoms: _367  and  _369
REMARK  168  A    between atoms: _369  and  _370
REMARK  169  A    between atoms: _369  and  _372
REMARK  170  A    between atoms: _372  and  _373
REMARK  171  A    between atoms: _373  and  _374
REMARK  172  A    between atoms: _377  and  _379
REMARK  173  A    between atoms: _379  and  _380
REMARK  174  A    between atoms: _379  and  _382
REMARK  175  A    between atoms: _382  and  _383
REMARK  176  A    between atoms: _388  and  _389
REMARK  177  A    between atoms: _391  and  _393
REMARK  178  A    between atoms: _393  and  _394
REMARK  179  A    between atoms: _398  and  _399
REMARK  180  A    between atoms: _404  and  _406
REMARK  181  A    between atoms: _406  and  _407
REMARK  182  A    between atoms: _409  and  _411
REMARK  183  A    between atoms: _411  and  _412
REMARK  184  A    between atoms: _414  and  _416
REMARK  185  A    between atoms: _416  and  _417
REMARK  186  A    between atoms: _416  and  _419
REMARK  187  A    between atoms: _419  and  _420
REMARK  188  A    between atoms: _420  and  _421
REMARK  189  A    between atoms: _424  and  _426
REMARK  190  A    between atoms: _426  and  _427
REMARK  191  A    between atoms: _426  and  _429
REMARK  192  A    between atoms: _429  and  _430
REMARK  193  A    between atoms: _430  and  _431
REMARK  194  A    between atoms: _433  and  _435
REMARK  195  A    between atoms: _435  and  _436
REMARK  196  A    between atoms: _435  and  _438
REMARK  197  A    between atoms: _438  and  _439
REMARK  198  A    between atoms: _445  and  _447
REMARK  199  A    between atoms: _447  and  _448
REMARK  200  A    between atoms: _447  and  _450
REMARK  201  A    between atoms: _450  and  _451
REMARK  202  A    between atoms: _456  and  _457
REMARK  203  A    between atoms: _459  and  _461
REMARK  204  A    between atoms: _461  and  _462
REMARK  205  A    between atoms: _461  and  _464
REMARK  206  A    between atoms: _464  and  _465
REMARK  207  A    between atoms: _468  and  _470
REMARK  208  A    between atoms: _470  and  _471
REMARK  209  A    between atoms: _470  and  _473
REMARK  210  A    between atoms: _473  and  _474
REMARK  211  A    between atoms: _474  and  _475
REMARK  212  A    between atoms: _475  and  _476
REMARK  213  A    between atoms: _476  and  _477
REMARK  214  A    between atoms: _482  and  _483
REMARK  215  A    between atoms: _488  and  _490
REMARK  216  A    between atoms: _490  and  _491
REMARK  217  A    between atoms: _490  and  _493
REMARK  218  A    between atoms: _493  and  _494
REMARK  219  A    between atoms: _494  and  _495
REMARK  220  A    between atoms: _498  and  _500
REMARK  221  A    between atoms: _500  and  _501
REMARK  222  A    between atoms: _500  and  _503
REMARK  223  A    between atoms: _503  and  _504
REMARK  224  A    between atoms: _509  and  _511
REMARK  225  A    between atoms: _511  and  _512
REMARK  226  A    between atoms: _511  and  _514
REMARK  227  A    between atoms: _514  and  _515
REMARK  228  A    between atoms: _518  and  _520
REMARK  229  A    between atoms: _520  and  _521
REMARK  230  A    between atoms: _520  and  _523
REMARK  231  A    between atoms: _523  and  _524
REMARK  232  A    between atoms: _524  and  _525
REMARK  233  A    between atoms: _527  and  _529
REMARK  234  A    between atoms: _529  and  _530
REMARK  235  A    between atoms: _529  and  _532
REMARK  236  A    between atoms: _532  and  _533
REMARK  237  A    between atoms: _536  and  _538
REMARK  238  A    between atoms: _538  and  _539
REMARK  239  A    between atoms: _538  and  _541
REMARK  240  A    between atoms: _541  and  _542
REMARK  241  A    between atoms: _542  and  _543
REMARK  242  A    between atoms: _543  and  _544
REMARK  243  A    between atoms: _544  and  _545
REMARK  244  A    between atoms: _549  and  _551
REMARK  245  A    between atoms: _551  and  _552
REMARK  246  A    between atoms: _551  and  _554
REMARK  247  A    between atoms: _557  and  _559
REMARK  248  A    between atoms: _559  and  _560
REMARK  249  A    between atoms: _559  and  _562
REMARK  250  A    between atoms: _562  and  _563
REMARK  251  A    between atoms: _566  and  _568
REMARK  252  A    between atoms: _568  and  _569
REMARK  253  A    between atoms: _568  and  _571
REMARK  254  A    between atoms: _571  and  _572
REMARK  255  A    between atoms: _575  and  _577
REMARK  256  A    between atoms: _577  and  _578
REMARK  257  A    between atoms: _577  and  _580
REMARK  258  A    between atoms: _580  and  _581
REMARK  259  A    between atoms: _587  and  _589
REMARK  260  A    between atoms: _589  and  _590
REMARK  261  A    between atoms: _592  and  _594
REMARK  262  A    between atoms: _594  and  _595
REMARK  263  A    between atoms: _594  and  _597
REMARK  264  A    between atoms: _597  and  _598
REMARK  265  A    between atoms: _601  and  _603
REMARK  266  A    between atoms: _603  and  _604
REMARK  267  A    between atoms: _607  and  _609
REMARK  268  A    between atoms: _609  and  _610
REMARK  269  A    between atoms: _609  and  _612
REMARK  270  A    between atoms: _614  and  _616
REMARK  271  A    between atoms: _616  and  _617
REMARK  272  A    between atoms: _619  and  _621
REMARK  273  A    between atoms: _621  and  _622
REMARK  274  A    between atoms: _621  and  _624
REMARK  275  A    between atoms: _624  and  _625
REMARK  276  A    between atoms: _631  and  _633
REMARK  277  A    between atoms: _633  and  _634
REMARK  278  A    between atoms: _633  and  _636
REMARK  279  A    between atoms: _636  and  _637
REMARK  280  A    between atoms: _642  and  _643
REMARK                            x       y       z     vdW  Elec       q    Type
REMARK                         _______ _______ _______ _____ _____    ______ ____
ROOT
ATOM      1  CA  ASN A   4       3.591  39.933  11.744  0.00  0.00    +0.158 C 
ENDROOT
BRANCH   1   2
ATOM      2  C   ASN A   4       3.027  39.919  10.323  0.00  0.00    +0.241 C 
ATOM      3  N   LEU A   5       2.268  40.948   9.975  0.00  0.00    -0.297 N 
ATOM      4  H   LEU A   5       2.110  41.712  10.663  0.00  0.00    +0.150 HD
ATOM      5  O   ASN A   4       3.280  38.978   9.545  0.00  0.00    -0.273 OA
BRANCH   3   6
ATOM      6  CA  LEU A   5       1.642  41.045   8.649  0.00  0.00    +0.149 C 
BRANCH   6   7
ATOM      7  C   LEU A   5       2.285  42.212   7.922  0.00  0.00    +0.241 C 
ATOM      8  O   LEU A   5       1.962  43.356   8.158  0.00  0.00    -0.273 OA
ATOM      9  N   MET A   6       3.261  41.902   7.086  0.00  0.00    -0.297 N 
ATOM     10  H   MET A   6       3.532  40.905   6.968  0.00  0.00    +0.150 HD
BRANCH   9  11
ATOM     11  CA  MET A   6       3.970  42.932   6.322  0.00  0.00    +0.149 C 
BRANCH  11  12
ATOM     12  C   MET A   6       3.128  43.369   5.134  0.00  0.00    +0.241 C 
ATOM     13  N   ILE A   7       3.342  44.604   4.690  0.00  0.00    -0.298 N 
ATOM     14  H   ILE A   7       4.021  45.207   5.196  0.00  0.00    +0.150 HD
ATOM     15  O   MET A   6       2.314  42.608   4.623  0.00  0.00    -0.273 OA
BRANCH  13  16
ATOM     16  CA  ILE A   7       2.664  45.141   3.527  0.00  0.00    +0.137 C 
BRANCH  16  17
ATOM     17  C   ILE A   7       3.690  45.291   2.411  0.00  0.00    +0.227 C 
ATOM     18  O   ILE A   7       4.767  45.851   2.631  0.00  0.00    -0.286 OA
ENDBRANCH  16  17
BRANCH  16  19
ATOM     19  CB  ILE A   7       2.019  46.495   3.832  0.00  0.00    +0.026 C 
ATOM     20  CG2 ILE A   7       1.285  47.025   2.624  0.00  0.00    +0.002 C 
BRANCH  19  21
ATOM     21  CG1 ILE A   7       1.121  46.441   5.082  0.00  0.00    +0.002 C 
ATOM     22  CD1 ILE A   7      -0.092  45.538   4.997  0.00  0.00    +0.000 C 
ENDBRANCH  19  21
ENDBRANCH  16  19
ENDBRANCH  13  16
ENDBRANCH  11  12
BRANCH  11  23
ATOM     23  CB  MET A   6       5.323  42.396   5.812  0.00  0.00    +0.041 C 
BRANCH  23  24
ATOM     24  CG  MET A   6       6.217  41.731   6.863  0.00  0.00    +0.060 C 
BRANCH  24  25
ATOM     25  SD  MET A   6       6.473  42.733   8.330  0.00  0.00    -0.139 S 
ATOM     26  CE  MET A   6       7.237  44.127   7.561  0.00  0.00    +0.069 C 
ENDBRANCH  24  25
ENDBRANCH  23  24
ENDBRANCH  11  23
ENDBRANCH   9  11
ENDBRANCH   6   7
BRANCH   6  27
ATOM     27  CB  LEU A   5       0.124  41.232   8.781  0.00  0.00    +0.029 C 
BRANCH  27  28
ATOM     28  CG  LEU A   5      -0.588  40.134   9.562  0.00  0.00    +0.002 C 
ATOM     29  CD2 LEU A   5      -2.053  40.355   9.631  0.00  0.00    +0.000 C 
ATOM     30  CD1 LEU A   5      -0.302  38.786   8.936  0.00  0.00    +0.000 C 
ENDBRANCH  27  28
ENDBRANCH   6  27
ENDBRANCH   3   6
ENDBRANCH   1   2
BRANCH   1  32
ATOM     31  C   GLU A   3       3.720  42.081  12.931  0.00  0.00    +0.241 C 
ATOM     32  N   ASN A   4       3.029  40.996  12.598  0.00  0.00    -0.297 N 
ATOM     33  H   ASN A   4       2.057  40.893  12.952  0.00  0.00    +0.150 HD
ATOM     34  O   GLU A   3       4.851  42.298  12.535  0.00  0.00    -0.273 OA
BRANCH  31  35
ATOM     35  CA  GLU A   3       3.062  43.036  13.919  0.00  0.00    +0.149 C 
BRANCH  35  37
ATOM     36  C   PRO A   2       0.899  43.216  12.790  0.00  0.00    +0.241 C 
ATOM     37  N   GLU A   3       1.606  42.950  13.893  0.00  0.00    -0.297 N 
ATOM     38  H   GLU A   3       1.102  42.673  14.760  0.00  0.00    +0.150 HD
ATOM     39  O   PRO A   2       1.420  43.574  11.733  0.00  0.00    -0.273 OA
BRANCH  36  45
ATOM     40  C   LYS A   1      -0.698  40.802  13.735  0.00  0.00    +0.241 C 
ATOM     41  N   PRO A   2      -1.103  42.061  13.823  0.00  0.00    -0.272 N 
ATOM     42  CD  PRO A   2      -2.103  42.603  14.767  0.00  0.00    +0.094 C 
ATOM     43  CG  PRO A   2      -2.518  43.869  14.084  0.00  0.00    +0.024 C 
ATOM     44  CB  PRO A   2      -1.333  44.347  13.313  0.00  0.00    +0.031 C 
ATOM     45  CA  PRO A   2      -0.633  43.061  12.858  0.00  0.00    +0.152 C 
ATOM     46  O   LYS A   1       0.086  40.440  12.885  0.00  0.00    -0.273 OA
BRANCH  40  47
ATOM     47  CA  LYS A   1      -1.224  39.809  14.752  0.00  0.00    +0.145 C 
BRANCH  47  48
ATOM     48  N   LYS A   1      -1.052  38.460  14.193  0.00  0.00    -0.238 NA
ATOM     49  H   LYS A   1      -0.557  38.376  13.282  0.00  0.00    +0.142 HD
ENDBRANCH  47  48
BRANCH  47  50
ATOM     50  CB  LYS A   1      -0.471  39.985  16.068  0.00  0.00    +0.026 C 
BRANCH  50  51
ATOM     51  CG  LYS A   1       0.963  39.540  16.041  0.00  0.00    -0.000 C 
BRANCH  51  52
ATOM     52  CD  LYS A   1       1.631  39.634  17.399  0.00  0.00    -0.024 C 
BRANCH  52  53
ATOM     53  CE  LYS A   1       3.053  39.161  17.319  0.00  0.00    -0.086 C 
BRANCH  53  54
ATOM     54  NZ  LYS A   1       3.701  38.974  18.668  0.00  0.00    +0.380 N 
ATOM     55  HZ1 LYS A   1       3.167  38.267  19.213  0.00  0.00    -0.089 HD
ATOM     56  HZ2 LYS A   1       3.702  39.880  19.180  0.00  0.00    -0.089 HD
ATOM     57  HZ3 LYS A   1       4.680  38.647  18.539  0.00  0.00    -0.089 HD
ENDBRANCH  53  54
ENDBRANCH  52  53
ENDBRANCH  51  52
ENDBRANCH  50  51
ENDBRANCH  47  50
ENDBRANCH  40  47
ENDBRANCH  36  45
ENDBRANCH  35  37
BRANCH  35  58
ATOM     58  CB  GLU A   3       3.573  42.699  15.333  0.00  0.00    +0.041 C 
BRANCH  58  59
ATOM     59  CG  GLU A   3       3.241  43.726  16.402  0.00  0.00    +0.116 C 
BRANCH  59  60
ATOM     60  CD  GLU A   3       1.932  43.471  17.127  0.00  0.00    +0.365 C 
ATOM     61  OE2 GLU A   3       1.890  43.700  18.345  0.00  0.00    -0.246 OA
ATOM     62  OE1 GLU A   3       0.923  43.096  16.477  0.00  0.00    -0.246 OA
ENDBRANCH  59  60
ENDBRANCH  58  59
ENDBRANCH  35  58
ENDBRANCH  31  35
ENDBRANCH   1  32
BRANCH   1  63
ATOM     63  CB  ASN A   4       3.374  38.569  12.385  0.00  0.00    +0.114 C 
BRANCH  63  64
ATOM     64  CG  ASN A   4       4.220  38.355  13.631  0.00  0.00    +0.222 C 
ATOM     65  ND2 ASN A   4       3.888  37.301  14.389  0.00  0.00    -0.329 N 
ATOM     66 HD21 ASN A   4       4.409  37.108  15.269  0.00  0.00    +0.145 HD
ATOM     67 HD22 ASN A   4       3.110  36.676  14.098  0.00  0.00    +0.145 HD
ATOM     68  OD1 ASN A   4       5.135  39.131  13.928  0.00  0.00    -0.275 OA
ENDBRANCH  63  64
ENDBRANCH   1  63
TORSDOF 30
REMARK  Name = ../refined-set-2016/1xh9/1xh9_pocket.pdb
REMARK  280 active torsions:
REMARK  status: ('A' for Active; 'I' for Inactive)
REMARK    1  A    between atoms: _1  and  _3
REMARK    2  A    between atoms: _3  and  _4
REMARK    3  A    between atoms: _3  and  _6
REMARK    4  A    between atoms: _6  and  _7
REMARK    5  A    between atoms: _10  and  _12
REMARK    6  A    between atoms: _12  and  _13
REMARK    7  A    between atoms: _12  and  _15
REMARK    8  A    between atoms: _15  and  _16
REMARK    9  A    between atoms: _19  and  _21
REMARK   10  A    between atoms: _21  and  _22
REMARK   11  A    between atoms: _24  and  _26
REMARK   12  A    between atoms: _26  and  _27
REMARK   13  A    between atoms: _26  and  _29
REMARK   14  A    between atoms: _29  and  _30
REMARK   15  A    between atoms: _33  and  _35
REMARK   16  A    between atoms: _35  and  _36
REMARK   17  A    between atoms: _38  and  _40
REMARK   18  A    between atoms: _40  and  _41
REMARK   19  A    between atoms: _40  and  _43
REMARK   20  A    between atoms: _43  and  _44
REMARK   21  A    between atoms: _46  and  _48
REMARK   22  A    between atoms: _48  and  _49
REMARK   23  A    between atoms: _48  and  _51
REMARK   24  A    between atoms: _51  and  _52
REMARK   25  A    between atoms: _58  and  _60
REMARK   26  A    between atoms: _60  and  _61
REMARK   27  A    between atoms: _63  and  _65
REMARK   28  A    between atoms: _65  and  _66
REMARK   29  A    between atoms: _65  and  _68
REMARK   30  A    between atoms: _68  and  _69
REMARK   31  A    between atoms: _69  and  _70
REMARK   32  A    between atoms: _70  and  _71
REMARK   33  A    between atoms: _80  and  _82
REMARK   34  A    between atoms: _82  and  _83
REMARK   35  A    between atoms: _82  and  _85
REMARK   36  A    between atoms: _88  and  _90
REMARK   37  A    between atoms: _90  and  _91
REMARK   38  A    between atoms: _90  and  _93
REMARK   39  A    between atoms: _93  and  _94
REMARK   40  A    between atoms: _94  and  _95
REMARK   41  A    between atoms: _97  and  _99
REMARK   42  A    between atoms: _99  and  _100
REMARK   43  A    between atoms: _99  and  _102
REMARK   44  A    between atoms: _102  and  _103
REMARK   45  A    between atoms: _106  and  _108
REMARK   46  A    between atoms: _108  and  _109
REMARK   47  A    between atoms: _108  and  _111
REMARK   48  A    between atoms: _111  and  _112
REMARK   49  A    between atoms: _117  and  _118
REMARK   50  A    between atoms: _120  and  _122
REMARK   51  A    between atoms: _122  and  _123
REMARK   52  A    between atoms: _126  and  _128
REMARK   53  A    between atoms: _128  and  _129
REMARK   54  A    between atoms: _128  and  _131
REMARK   55  A    between atoms: _131  and  _132
REMARK   56  A    between atoms: _132  and  _133
REMARK   57  A    between atoms: _135  and  _137
REMARK   58  A    between atoms: _137  and  _138
REMARK   59  A    between atoms: _137  and  _140
REMARK   60  A    between atoms: _140  and  _141
REMARK   61  A    between atoms: _141  and  _142
REMARK   62  A    between atoms: _142  and  _143
REMARK   63  A    between atoms: _143  and  _144
REMARK   64  A    between atoms: _148  and  _150
REMARK   65  A    between atoms: _150  and  _151
REMARK   66  A    between atoms: _150  and  _153
REMARK   67  A    between atoms: _153  and  _154
REMARK   68  A    between atoms: _157  and  _159
REMARK   69  A    between atoms: _159  and  _160
REMARK   70  A    between atoms: _159  and  _162
REMARK   71  A    between atoms: _162  and  _163
REMARK   72  A    between atoms: _166  and  _168
REMARK   73  A    between atoms: _168  and  _169
REMARK   74  A    between atoms: _168  and  _171
REMARK   75  A    between atoms: _171  and  _172
REMARK   76  A    between atoms: _175  and  _177
REMARK   77  A    between atoms: _177  and  _178
REMARK   78  A    between atoms: _177  and  _180
REMARK   79  A    between atoms: _180  and  _181
REMARK   80  A    between atoms: _181  and  _182
REMARK   81  A    between atoms: _182  and  _183
REMARK   82  A    between atoms: _183  and  _184
REMARK   83  A    between atoms: _188  and  _190
REMARK   84  A    between atoms: _190  and  _191
REMARK   85  A    between atoms: _190  and  _193
REMARK   86  A    between atoms: _196  and  _198
REMARK   87  A    between atoms: _198  and  _199
REMARK   88  A    between atoms: _198  and  _201
REMARK   89  A    between atoms: _201  and  _202
REMARK   90  A    between atoms: _205  and  _207
REMARK   91  A    between atoms: _207  and  _208
REMARK   92  A    between atoms: _207  and  _210
REMARK   93  A    between atoms: _210  and  _211
REMARK   94  A    between atoms: _211  and  _212
REMARK   95  A    between atoms: _212  and  _213
REMARK   96  A    between atoms: _213  and  _214
REMARK   97  A    between atoms: _218  and  _220
REMARK   98  A    between atoms: _220  and  _221
REMARK   99  A    between atoms: _220  and  _223
REMARK  100  A    between atoms: _223  and  _224
REMARK  101  A    between atoms: _224  and  _225
REMARK  102  A    between atoms: _228  and  _230
REMARK  103  A    between atoms: _230  and  _231
REMARK  104  A    between atoms: _230  and  _233
REMARK  105  A    between atoms: _233  and  _234
REMARK  106  A    between atoms: _237  and  _239
REMARK  107  A    between atoms: _239  and  _240
REMARK  108  A    between atoms: _239  and  _242
REMARK  109  A    between atoms: _242  and  _243
REMARK  110  A    between atoms: _243  and  _244
REMARK  111  A    between atoms: _247  and  _249
REMARK  112  A    between atoms: _249  and  _250
REMARK  113  A    between atoms: _249  and  _252
REMARK  114  A    between atoms: _252  and  _253
REMARK  115  A    between atoms: _258  and  _260
REMARK  116  A    between atoms: _260  and  _261
REMARK  117  A    between atoms: _260  and  _263
REMARK  118  A    between atoms: _263  and  _264
REMARK  119  A    between atoms: _267  and  _269
REMARK  120  A    between atoms: _269  and  _270
REMARK  121  A    between atoms: _269  and  _272
REMARK  122  A    between atoms: _272  and  _273
REMARK  123  A    between atoms: _276  and  _278
REMARK  124  A    between atoms: _278  and  _279
REMARK  125  A    between atoms: _278  and  _281
REMARK  126  A    between atoms: _281  and  _282
REMARK  127  A    between atoms: _287  and  _289
REMARK  128  A    between atoms: _289  and  _290
REMARK  129  A    between atoms: _289  and  _292
REMARK  130  A    between atoms: _292  and  _293
REMARK  131  A    between atoms: _293  and  _294
REMARK  132  A    between atoms: _297  and  _299
REMARK  133  A    between atoms: _299  and  _300
REMARK  134  A    between atoms: _299  and  _302
REMARK  135  A    between atoms: _302  and  _303
REMARK  136  A    between atoms: _303  and  _304
REMARK  137  A    between atoms: _304  and  _305
REMARK  138  A    between atoms: _305  and  _306
REMARK  139  A    between atoms: _310  and  _312
REMARK  140  A    between atoms: _312  and  _313
REMARK  141  A    between atoms: _312  and  _315
REMARK  142  A    between atoms: _315  and  _316
REMARK  143  A    between atoms: _319  and  _321
REMARK  144  A    between atoms: _321  and  _322
REMARK  145  A    between atoms: _321  and  _324
REMARK  146  A    between atoms: _327  and  _329
REMARK  147  A    between atoms: _329  and  _330
REMARK  148  A    between atoms: _329  and  _332
REMARK  149  A    between atoms: _332  and  _333
REMARK  150  A    between atoms: _333  and  _334
REMARK  151  A    between atoms: _334  and  _335
REMARK  152  A    between atoms: _335  and  _336
REMARK  153  A    between atoms: _340  and  _342
REMARK  154  A    between atoms: _342  and  _343
REMARK  155  A    between atoms: _342  and  _345
REMARK  156  A    between atoms: _345  and  _346
REMARK  157  A    between atoms: _349  and  _351
REMARK  158  A    between atoms: _351  and  _352
REMARK  159  A    between atoms: _351  and  _354
REMARK  160  A    between atoms: _354  and  _355
REMARK  161  A    between atoms: _355  and  _356
REMARK  162  A    between atoms: _358  and  _360
REMARK  163  A    between atoms: _360  and  _361
REMARK  164  A    between atoms: _360  and  _363
REMARK  165  A    between atoms: _363  and  _364
REMARK  166  A    between atoms: _364  and  _365
REMARK  167  A    between atoms: _367  and  _369
REMARK  168  A    between atoms: _369  and  _370
REMARK  169  A    between atoms: _369  and  _372
REMARK  170  A    between atoms: _372  and  _373
REMARK  171  A    between atoms: _373  and  _374
REMARK  172  A    between atoms: _377  and  _379
REMARK  173  A    between atoms: _379  and  _380
REMARK  174  A    between atoms: _379  and  _382
REMARK  175  A    between atoms: _382  and  _383
REMARK  176  A    between atoms: _388  and  _389
REMARK  177  A    between atoms: _391  and  _393
REMARK  178  A    between atoms: _393  and  _394
REMARK  179  A    between atoms: _398  and  _399
REMARK  180  A    between atoms: _404  and  _406
REMARK  181  A    between atoms: _406  and  _407
REMARK  182  A    between atoms: _409  and  _411
REMARK  183  A    between atoms: _411  and  _412
REMARK  184  A    between atoms: _414  and  _416
REMARK  185  A    between atoms: _416  and  _417
REMARK  186  A    between atoms: _416  and  _419
REMARK  187  A    between atoms: _419  and  _420
REMARK  188  A    between atoms: _420  and  _421
REMARK  189  A    between atoms: _424  and  _426
REMARK  190  A    between atoms: _426  and  _427
REMARK  191  A    between atoms: _426  and  _429
REMARK  192  A    between atoms: _429  and  _430
REMARK  193  A    between atoms: _430  and  _431
REMARK  194  A    between atoms: _433  and  _435
REMARK  195  A    between atoms: _435  and  _436
REMARK  196  A    between atoms: _435  and  _438
REMARK  197  A    between atoms: _438  and  _439
REMARK  198  A    between atoms: _445  and  _447
REMARK  199  A    between atoms: _447  and  _448
REMARK  200  A    between atoms: _447  and  _450
REMARK  201  A    between atoms: _450  and  _451
REMARK  202  A    between atoms: _456  and  _457
REMARK  203  A    between atoms: _459  and  _461
REMARK  204  A    between atoms: _461  and  _462
REMARK  205  A    between atoms: _461  and  _464
REMARK  206  A    between atoms: _464  and  _465
REMARK  207  A    between atoms: _468  and  _470
REMARK  208  A    between atoms: _470  and  _471
REMARK  209  A    between atoms: _470  and  _473
REMARK  210  A    between atoms: _473  and  _474
REMARK  211  A    between atoms: _474  and  _475
REMARK  212  A    between atoms: _475  and  _476
REMARK  213  A    between atoms: _476  and  _477
REMARK  214  A    between atoms: _482  and  _483
REMARK  215  A    between atoms: _488  and  _490
REMARK  216  A    between atoms: _490  and  _491
REMARK  217  A    between atoms: _490  and  _493
REMARK  218  A    between atoms: _493  and  _494
REMARK  219  A    between atoms: _494  and  _495
REMARK  220  A    between atoms: _498  and  _500
REMARK  221  A    between atoms: _500  and  _501
REMARK  222  A    between atoms: _500  and  _503
REMARK  223  A    between atoms: _503  and  _504
REMARK  224  A    between atoms: _509  and  _511
REMARK  225  A    between atoms: _511  and  _512
REMARK  226  A    between atoms: _511  and  _514
REMARK  227  A    between atoms: _514  and  _515
REMARK  228  A    between atoms: _518  and  _520
REMARK  229  A    between atoms: _520  and  _521
REMARK  230  A    between atoms: _520  and  _523
REMARK  231  A    between atoms: _523  and  _524
REMARK  232  A    between atoms: _524  and  _525
REMARK  233  A    between atoms: _527  and  _529
REMARK  234  A    between atoms: _529  and  _530
REMARK  235  A    between atoms: _529  and  _532
REMARK  236  A    between atoms: _532  and  _533
REMARK  237  A    between atoms: _536  and  _538
REMARK  238  A    between atoms: _538  and  _539
REMARK  239  A    between atoms: _538  and  _541
REMARK  240  A    between atoms: _541  and  _542
REMARK  241  A    between atoms: _542  and  _543
REMARK  242  A    between atoms: _543  and  _544
REMARK  243  A    between atoms: _544  and  _545
REMARK  244  A    between atoms: _549  and  _551
REMARK  245  A    between atoms: _551  and  _552
REMARK  246  A    between atoms: _551  and  _554
REMARK  247  A    between atoms: _557  and  _559
REMARK  248  A    between atoms: _559  and  _560
REMARK  249  A    between atoms: _559  and  _562
REMARK  250  A    between atoms: _562  and  _563
REMARK  251  A    between atoms: _566  and  _568
REMARK  252  A    between atoms: _568  and  _569
REMARK  253  A    between atoms: _568  and  _571
REMARK  254  A    between atoms: _571  and  _572
REMARK  255  A    between atoms: _575  and  _577
REMARK  256  A    between atoms: _577  and  _578
REMARK  257  A    between atoms: _577  and  _580
REMARK  258  A    between atoms: _580  and  _581
REMARK  259  A    between atoms: _587  and  _589
REMARK  260  A    between atoms: _589  and  _590
REMARK  261  A    between atoms: _592  and  _594
REMARK  262  A    between atoms: _594  and  _595
REMARK  263  A    between atoms: _594  and  _597
REMARK  264  A    between atoms: _597  and  _598
REMARK  265  A    between atoms: _601  and  _603
REMARK  266  A    between atoms: _603  and  _604
REMARK  267  A    between atoms: _607  and  _609
REMARK  268  A    between atoms: _609  and  _610
REMARK  269  A    between atoms: _609  and  _612
REMARK  270  A    between atoms: _614  and  _616
REMARK  271  A    between atoms: _616  and  _617
REMARK  272  A    between atoms: _619  and  _621
REMARK  273  A    between atoms: _621  and  _622
REMARK  274  A    between atoms: _621  and  _624
REMARK  275  A    between atoms: _624  and  _625
REMARK  276  A    between atoms: _631  and  _633
REMARK  277  A    between atoms: _633  and  _634
REMARK  278  A    between atoms: _633  and  _636
REMARK  279  A    between atoms: _636  and  _637
REMARK  280  A    between atoms: _642  and  _643
REMARK                            x       y       z     vdW  Elec       q    Type
REMARK                         _______ _______ _______ _____ _____    ______ ____
ROOT
ATOM      1  CA  ASP A   4       7.759  35.390  11.738  0.00  0.00    +0.160 C 
ENDROOT
BRANCH   1   2
ATOM      2  C   ASP A   4       7.043  34.087  12.021  0.00  0.00    +0.241 C 
ATOM      3  O   ASP A   4       6.020  34.015  12.737  0.00  0.00    -0.273 OA
ATOM      4  N   PHE A   5       7.608  33.040  11.438  0.00  0.00    -0.297 N 
ATOM      5  H   PHE A   5       8.445  33.195  10.841  0.00  0.00    +0.150 HD
BRANCH   4   6
ATOM      6  CA  PHE A   5       7.109  31.683  11.596  0.00  0.00    +0.153 C 
BRANCH   6   7
ATOM      7  C   PHE A   5       7.691  30.946  12.810  0.00  0.00    +0.241 C 
ATOM      8  N   GLY A   6       8.176  31.695  13.806  0.00  0.00    -0.295 N 
ATOM      9  H   GLY A   6       8.105  32.731  13.741  0.00  0.00    +0.150 HD
ATOM     10  O   PHE A   5       7.630  29.723  12.888  0.00  0.00    -0.273 OA
BRANCH   8  11
ATOM     11  CA  GLY A   6       8.799  31.102  14.975  0.00  0.00    +0.176 C 
BRANCH  11  12
ATOM     12  C   GLY A   6       7.910  30.199  15.819  0.00  0.00    +0.243 C 
ATOM     13  O   GLY A   6       8.410  29.340  16.535  0.00  0.00    -0.273 OA
ATOM     14  N   LEU A   7       6.597  30.400  15.760  0.00  0.00    -0.297 N 
ATOM     15  H   LEU A   7       6.224  31.188  15.194  0.00  0.00    +0.150 HD
BRANCH  14  16
ATOM     16  CA  LEU A   7       5.668  29.526  16.482  0.00  0.00    +0.149 C 
BRANCH  16  17
ATOM     17  C   LEU A   7       4.920  28.561  15.582  0.00  0.00    +0.241 C 
ATOM     18  O   LEU A   7       4.062  27.815  16.061  0.00  0.00    -0.273 OA
ATOM     19  N   ALA A   8       5.213  28.574  14.293  0.00  0.00    -0.298 N 
ATOM     20  H   ALA A   8       5.947  29.222  13.943  0.00  0.00    +0.150 HD
BRANCH  19  21
ATOM     21  CA  ALA A   8       4.528  27.700  13.356  0.00  0.00    +0.137 C 
ATOM     22  CB  ALA A   8       4.767  28.135  11.928  0.00  0.00    +0.030 C 
BRANCH  21  23
ATOM     23  C   ALA A   8       5.008  26.259  13.575  0.00  0.00    +0.227 C 
ATOM     24  O   ALA A   8       6.166  26.021  13.941  0.00  0.00    -0.286 OA
ENDBRANCH  21  23
ENDBRANCH  19  21
ENDBRANCH  16  17
BRANCH  16  25
ATOM     25  CB  LEU A   7       4.657  30.355  17.279  0.00  0.00    +0.029 C 
BRANCH  25  26
ATOM     26  CG  LEU A   7       5.311  31.226  18.359  0.00  0.00    +0.002 C 
ATOM     27  CD2 LEU A   7       6.097  30.372  19.347  0.00  0.00    +0.000 C 
ATOM     28  CD1 LEU A   7       4.285  32.088  19.064  0.00  0.00    +0.000 C 
ENDBRANCH  25  26
ENDBRANCH  16  25
ENDBRANCH  14  16
ENDBRANCH  11  12
ENDBRANCH   8  11
ENDBRANCH   6   7
BRANCH   6  29
ATOM     29  CB  PHE A   5       7.356  30.891  10.288  0.00  0.00    +0.055 C 
BRANCH  29  30
ATOM     30  CG  PHE A   5       6.273  31.059   9.262  0.00  0.00    -0.020 A 
ATOM     31  CD2 PHE A   5       5.446  29.990   8.953  0.00  0.00    -0.004 A 
ATOM     32  CE2 PHE A   5       4.436  30.122   8.038  0.00  0.00    -0.000 A 
ATOM     33  CZ  PHE A   5       4.238  31.339   7.406  0.00  0.00    -0.000 A 
ATOM     34  CE1 PHE A   5       5.032  32.408   7.687  0.00  0.00    -0.000 A 
ATOM     35  CD1 PHE A   5       6.069  32.271   8.636  0.00  0.00    -0.004 A 
ENDBRANCH  29  30
ENDBRANCH   6  29
ENDBRANCH   4   6
ENDBRANCH   1   2
BRANCH   1  38
ATOM     36  C   THR A   3       6.315  36.157   9.894  0.00  0.00    +0.243 C 
ATOM     37  O   THR A   3       5.271  35.977  10.527  0.00  0.00    -0.273 OA
ATOM     38  N   ASP A   4       7.528  35.863  10.381  0.00  0.00    -0.296 N 
ATOM     39  H   ASP A   4       8.350  35.979   9.755  0.00  0.00    +0.150 HD
BRANCH  36  40
ATOM     40  CA  THR A   3       6.259  36.713   8.453  0.00  0.00    +0.176 C 
BRANCH  40  42
ATOM     41  C   VAL A   2       4.348  36.570   6.935  0.00  0.00    +0.241 C 
ATOM     42  N   THR A   3       4.881  37.005   8.069  0.00  0.00    -0.295 N 
ATOM     43  H   THR A   3       4.294  37.577   8.710  0.00  0.00    +0.150 HD
ATOM     44  O   VAL A   2       4.987  35.942   6.096  0.00  0.00    -0.273 OA
BRANCH  41  45
ATOM     45  CA  VAL A   2       2.880  36.930   6.677  0.00  0.00    +0.148 C 
BRANCH  45  48
ATOM     46  C   LYS A   1       3.276  38.610   4.939  0.00  0.00    +0.238 C 
ATOM     47  O   LYS A   1       3.809  39.384   5.738  0.00  0.00    -0.274 OA
ATOM     48  N   VAL A   2       2.781  37.426   5.308  0.00  0.00    -0.297 N 
ATOM     49  H   VAL A   2       2.308  36.836   4.594  0.00  0.00    +0.150 HD
BRANCH  46  50
ATOM     50  CA  LYS A   1       3.170  38.985   3.450  0.00  0.00    +0.145 C 
BRANCH  50  51
ATOM     51  N   LYS A   1       2.235  40.107   3.342  0.00  0.00    -0.238 NA
ATOM     52  H   LYS A   1       2.413  40.962   3.907  0.00  0.00    +0.142 HD
ENDBRANCH  50  51
BRANCH  50  53
ATOM     53  CB  LYS A   1       4.565  39.356   2.926  0.00  0.00    +0.026 C 
BRANCH  53  54
ATOM     54  CG  LYS A   1       4.591  39.904   1.526  0.00  0.00    -0.000 C 
BRANCH  54  55
ATOM     55  CD  LYS A   1       4.351  38.840   0.538  0.00  0.00    -0.024 C 
BRANCH  55  56
ATOM     56  CE  LYS A   1       4.749  39.290  -0.869  0.00  0.00    -0.086 C 
BRANCH  56  57
ATOM     57  NZ  LYS A   1       4.247  38.357  -1.866  0.00  0.00    +0.380 N 
ATOM     58  HZ1 LYS A   1       4.646  37.413  -1.688  0.00  0.00    -0.089 HD
ATOM     59  HZ2 LYS A   1       3.210  38.313  -1.806  0.00  0.00    -0.089 HD
ATOM     60  HZ3 LYS A   1       4.528  38.680  -2.814  0.00  0.00    -0.089 HD
ENDBRANCH  56  57
ENDBRANCH  55  56
ENDBRANCH  54  55
ENDBRANCH  53  54
ENDBRANCH  50  53
ENDBRANCH  46  50
ENDBRANCH  45  48
BRANCH  45  61
ATOM     61  CB  VAL A   2       2.012  35.682   6.910  0.00  0.00    +0.027 C 
ATOM     62  CG2 VAL A   2       2.150  35.186   8.354  0.00  0.00    +0.002 C 
ATOM     63  CG1 VAL A   2       0.546  35.963   6.613  0.00  0.00    +0.002 C 
ENDBRANCH  45  61
ENDBRANCH  41  45
ENDBRANCH  40  42
BRANCH  40  64
ATOM     64  CB  THR A   3       7.110  37.991   8.268  0.00  0.00    +0.137 C 
ATOM     65  CG2 THR A   3       6.833  39.002   9.390  0.00  0.00    +0.034 C 
BRANCH  64  66
ATOM     66  OG1 THR A   3       8.503  37.678   8.355  0.00  0.00    -0.382 OA
ATOM     67  HG1 THR A   3       9.034  38.505   8.235  0.00  0.00    +0.210 HD
ENDBRANCH  64  66
ENDBRANCH  40  64
ENDBRANCH  36  40
ENDBRANCH   1  38
BRANCH   1  68
ATOM     68  CB  ASP A   4       7.457  36.464  12.781  0.00  0.00    +0.143 C 
BRANCH  68  69
ATOM     69  CG  ASP A   4       8.562  37.540  12.853  0.00  0.00    +0.367 C 
ATOM     70  OD2 ASP A   4       8.417  38.582  13.505  0.00  0.00    -0.246 OA
ATOM     71  OD1 ASP A   4       9.632  37.364  12.219  0.00  0.00    -0.246 OA
ENDBRANCH  68  69
ENDBRANCH   1  68
TORSDOF 30
REMARK  Name = ../refined-set-2016/1xh9/1xh9_pocket.pdb
REMARK  280 active torsions:
REMARK  status: ('A' for Active; 'I' for Inactive)
REMARK    1  A    between atoms: _1  and  _3
REMARK    2  A    between atoms: _3  and  _4
REMARK    3  A    between atoms: _3  and  _6
REMARK    4  A    between atoms: _6  and  _7
REMARK    5  A    between atoms: _10  and  _12
REMARK    6  A    between atoms: _12  and  _13
REMARK    7  A    between atoms: _12  and  _15
REMARK    8  A    between atoms: _15  and  _16
REMARK    9  A    between atoms: _19  and  _21
REMARK   10  A    between atoms: _21  and  _22
REMARK   11  A    between atoms: _24  and  _26
REMARK   12  A    between atoms: _26  and  _27
REMARK   13  A    between atoms: _26  and  _29
REMARK   14  A    between atoms: _29  and  _30
REMARK   15  A    between atoms: _33  and  _35
REMARK   16  A    between atoms: _35  and  _36
REMARK   17  A    between atoms: _38  and  _40
REMARK   18  A    between atoms: _40  and  _41
REMARK   19  A    between atoms: _40  and  _43
REMARK   20  A    between atoms: _43  and  _44
REMARK   21  A    between atoms: _46  and  _48
REMARK   22  A    between atoms: _48  and  _49
REMARK   23  A    between atoms: _48  and  _51
REMARK   24  A    between atoms: _51  and  _52
REMARK   25  A    between atoms: _58  and  _60
REMARK   26  A    between atoms: _60  and  _61
REMARK   27  A    between atoms: _63  and  _65
REMARK   28  A    between atoms: _65  and  _66
REMARK   29  A    between atoms: _65  and  _68
REMARK   30  A    between atoms: _68  and  _69
REMARK   31  A    between atoms: _69  and  _70
REMARK   32  A    between atoms: _70  and  _71
REMARK   33  A    between atoms: _80  and  _82
REMARK   34  A    between atoms: _82  and  _83
REMARK   35  A    between atoms: _82  and  _85
REMARK   36  A    between atoms: _88  and  _90
REMARK   37  A    between atoms: _90  and  _91
REMARK   38  A    between atoms: _90  and  _93
REMARK   39  A    between atoms: _93  and  _94
REMARK   40  A    between atoms: _94  and  _95
REMARK   41  A    between atoms: _97  and  _99
REMARK   42  A    between atoms: _99  and  _100
REMARK   43  A    between atoms: _99  and  _102
REMARK   44  A    between atoms: _102  and  _103
REMARK   45  A    between atoms: _106  and  _108
REMARK   46  A    between atoms: _108  and  _109
REMARK   47  A    between atoms: _108  and  _111
REMARK   48  A    between atoms: _111  and  _112
REMARK   49  A    between atoms: _117  and  _118
REMARK   50  A    between atoms: _120  and  _122
REMARK   51  A    between atoms: _122  and  _123
REMARK   52  A    between atoms: _126  and  _128
REMARK   53  A    between atoms: _128  and  _129
REMARK   54  A    between atoms: _128  and  _131
REMARK   55  A    between atoms: _131  and  _132
REMARK   56  A    between atoms: _132  and  _133
REMARK   57  A    between atoms: _135  and  _137
REMARK   58  A    between atoms: _137  and  _138
REMARK   59  A    between atoms: _137  and  _140
REMARK   60  A    between atoms: _140  and  _141
REMARK   61  A    between atoms: _141  and  _142
REMARK   62  A    between atoms: _142  and  _143
REMARK   63  A    between atoms: _143  and  _144
REMARK   64  A    between atoms: _148  and  _150
REMARK   65  A    between atoms: _150  and  _151
REMARK   66  A    between atoms: _150  and  _153
REMARK   67  A    between atoms: _153  and  _154
REMARK   68  A    between atoms: _157  and  _159
REMARK   69  A    between atoms: _159  and  _160
REMARK   70  A    between atoms: _159  and  _162
REMARK   71  A    between atoms: _162  and  _163
REMARK   72  A    between atoms: _166  and  _168
REMARK   73  A    between atoms: _168  and  _169
REMARK   74  A    between atoms: _168  and  _171
REMARK   75  A    between atoms: _171  and  _172
REMARK   76  A    between atoms: _175  and  _177
REMARK   77  A    between atoms: _177  and  _178
REMARK   78  A    between atoms: _177  and  _180
REMARK   79  A    between atoms: _180  and  _181
REMARK   80  A    between atoms: _181  and  _182
REMARK   81  A    between atoms: _182  and  _183
REMARK   82  A    between atoms: _183  and  _184
REMARK   83  A    between atoms: _188  and  _190
REMARK   84  A    between atoms: _190  and  _191
REMARK   85  A    between atoms: _190  and  _193
REMARK   86  A    between atoms: _196  and  _198
REMARK   87  A    between atoms: _198  and  _199
REMARK   88  A    between atoms: _198  and  _201
REMARK   89  A    between atoms: _201  and  _202
REMARK   90  A    between atoms: _205  and  _207
REMARK   91  A    between atoms: _207  and  _208
REMARK   92  A    between atoms: _207  and  _210
REMARK   93  A    between atoms: _210  and  _211
REMARK   94  A    between atoms: _211  and  _212
REMARK   95  A    between atoms: _212  and  _213
REMARK   96  A    between atoms: _213  and  _214
REMARK   97  A    between atoms: _218  and  _220
REMARK   98  A    between atoms: _220  and  _221
REMARK   99  A    between atoms: _220  and  _223
REMARK  100  A    between atoms: _223  and  _224
REMARK  101  A    between atoms: _224  and  _225
REMARK  102  A    between atoms: _228  and  _230
REMARK  103  A    between atoms: _230  and  _231
REMARK  104  A    between atoms: _230  and  _233
REMARK  105  A    between atoms: _233  and  _234
REMARK  106  A    between atoms: _237  and  _239
REMARK  107  A    between atoms: _239  and  _240
REMARK  108  A    between atoms: _239  and  _242
REMARK  109  A    between atoms: _242  and  _243
REMARK  110  A    between atoms: _243  and  _244
REMARK  111  A    between atoms: _247  and  _249
REMARK  112  A    between atoms: _249  and  _250
REMARK  113  A    between atoms: _249  and  _252
REMARK  114  A    between atoms: _252  and  _253
REMARK  115  A    between atoms: _258  and  _260
REMARK  116  A    between atoms: _260  and  _261
REMARK  117  A    between atoms: _260  and  _263
REMARK  118  A    between atoms: _263  and  _264
REMARK  119  A    between atoms: _267  and  _269
REMARK  120  A    between atoms: _269  and  _270
REMARK  121  A    between atoms: _269  and  _272
REMARK  122  A    between atoms: _272  and  _273
REMARK  123  A    between atoms: _276  and  _278
REMARK  124  A    between atoms: _278  and  _279
REMARK  125  A    between atoms: _278  and  _281
REMARK  126  A    between atoms: _281  and  _282
REMARK  127  A    between atoms: _287  and  _289
REMARK  128  A    between atoms: _289  and  _290
REMARK  129  A    between atoms: _289  and  _292
REMARK  130  A    between atoms: _292  and  _293
REMARK  131  A    between atoms: _293  and  _294
REMARK  132  A    between atoms: _297  and  _299
REMARK  133  A    between atoms: _299  and  _300
REMARK  134  A    between atoms: _299  and  _302
REMARK  135  A    between atoms: _302  and  _303
REMARK  136  A    between atoms: _303  and  _304
REMARK  137  A    between atoms: _304  and  _305
REMARK  138  A    between atoms: _305  and  _306
REMARK  139  A    between atoms: _310  and  _312
REMARK  140  A    between atoms: _312  and  _313
REMARK  141  A    between atoms: _312  and  _315
REMARK  142  A    between atoms: _315  and  _316
REMARK  143  A    between atoms: _319  and  _321
REMARK  144  A    between atoms: _321  and  _322
REMARK  145  A    between atoms: _321  and  _324
REMARK  146  A    between atoms: _327  and  _329
REMARK  147  A    between atoms: _329  and  _330
REMARK  148  A    between atoms: _329  and  _332
REMARK  149  A    between atoms: _332  and  _333
REMARK  150  A    between atoms: _333  and  _334
REMARK  151  A    between atoms: _334  and  _335
REMARK  152  A    between atoms: _335  and  _336
REMARK  153  A    between atoms: _340  and  _342
REMARK  154  A    between atoms: _342  and  _343
REMARK  155  A    between atoms: _342  and  _345
REMARK  156  A    between atoms: _345  and  _346
REMARK  157  A    between atoms: _349  and  _351
REMARK  158  A    between atoms: _351  and  _352
REMARK  159  A    between atoms: _351  and  _354
REMARK  160  A    between atoms: _354  and  _355
REMARK  161  A    between atoms: _355  and  _356
REMARK  162  A    between atoms: _358  and  _360
REMARK  163  A    between atoms: _360  and  _361
REMARK  164  A    between atoms: _360  and  _363
REMARK  165  A    between atoms: _363  and  _364
REMARK  166  A    between atoms: _364  and  _365
REMARK  167  A    between atoms: _367  and  _369
REMARK  168  A    between atoms: _369  and  _370
REMARK  169  A    between atoms: _369  and  _372
REMARK  170  A    between atoms: _372  and  _373
REMARK  171  A    between atoms: _373  and  _374
REMARK  172  A    between atoms: _377  and  _379
REMARK  173  A    between atoms: _379  and  _380
REMARK  174  A    between atoms: _379  and  _382
REMARK  175  A    between atoms: _382  and  _383
REMARK  176  A    between atoms: _388  and  _389
REMARK  177  A    between atoms: _391  and  _393
REMARK  178  A    between atoms: _393  and  _394
REMARK  179  A    between atoms: _398  and  _399
REMARK  180  A    between atoms: _404  and  _406
REMARK  181  A    between atoms: _406  and  _407
REMARK  182  A    between atoms: _409  and  _411
REMARK  183  A    between atoms: _411  and  _412
REMARK  184  A    between atoms: _414  and  _416
REMARK  185  A    between atoms: _416  and  _417
REMARK  186  A    between atoms: _416  and  _419
REMARK  187  A    between atoms: _419  and  _420
REMARK  188  A    between atoms: _420  and  _421
REMARK  189  A    between atoms: _424  and  _426
REMARK  190  A    between atoms: _426  and  _427
REMARK  191  A    between atoms: _426  and  _429
REMARK  192  A    between atoms: _429  and  _430
REMARK  193  A    between atoms: _430  and  _431
REMARK  194  A    between atoms: _433  and  _435
REMARK  195  A    between atoms: _435  and  _436
REMARK  196  A    between atoms: _435  and  _438
REMARK  197  A    between atoms: _438  and  _439
REMARK  198  A    between atoms: _445  and  _447
REMARK  199  A    between atoms: _447  and  _448
REMARK  200  A    between atoms: _447  and  _450
REMARK  201  A    between atoms: _450  and  _451
REMARK  202  A    between atoms: _456  and  _457
REMARK  203  A    between atoms: _459  and  _461
REMARK  204  A    between atoms: _461  and  _462
REMARK  205  A    between atoms: _461  and  _464
REMARK  206  A    between atoms: _464  and  _465
REMARK  207  A    between atoms: _468  and  _470
REMARK  208  A    between atoms: _470  and  _471
REMARK  209  A    between atoms: _470  and  _473
REMARK  210  A    between atoms: _473  and  _474
REMARK  211  A    between atoms: _474  and  _475
REMARK  212  A    between atoms: _475  and  _476
REMARK  213  A    between atoms: _476  and  _477
REMARK  214  A    between atoms: _482  and  _483
REMARK  215  A    between atoms: _488  and  _490
REMARK  216  A    between atoms: _490  and  _491
REMARK  217  A    between atoms: _490  and  _493
REMARK  218  A    between atoms: _493  and  _494
REMARK  219  A    between atoms: _494  and  _495
REMARK  220  A    between atoms: _498  and  _500
REMARK  221  A    between atoms: _500  and  _501
REMARK  222  A    between atoms: _500  and  _503
REMARK  223  A    between atoms: _503  and  _504
REMARK  224  A    between atoms: _509  and  _511
REMARK  225  A    between atoms: _511  and  _512
REMARK  226  A    between atoms: _511  and  _514
REMARK  227  A    between atoms: _514  and  _515
REMARK  228  A    between atoms: _518  and  _520
REMARK  229  A    between atoms: _520  and  _521
REMARK  230  A    between atoms: _520  and  _523
REMARK  231  A    between atoms: _523  and  _524
REMARK  232  A    between atoms: _524  and  _525
REMARK  233  A    between atoms: _527  and  _529
REMARK  234  A    between atoms: _529  and  _530
REMARK  235  A    between atoms: _529  and  _532
REMARK  236  A    between atoms: _532  and  _533
REMARK  237  A    between atoms: _536  and  _538
REMARK  238  A    between atoms: _538  and  _539
REMARK  239  A    between atoms: _538  and  _541
REMARK  240  A    between atoms: _541  and  _542
REMARK  241  A    between atoms: _542  and  _543
REMARK  242  A    between atoms: _543  and  _544
REMARK  243  A    between atoms: _544  and  _545
REMARK  244  A    between atoms: _549  and  _551
REMARK  245  A    between atoms: _551  and  _552
REMARK  246  A    between atoms: _551  and  _554
REMARK  247  A    between atoms: _557  and  _559
REMARK  248  A    between atoms: _559  and  _560
REMARK  249  A    between atoms: _559  and  _562
REMARK  250  A    between atoms: _562  and  _563
REMARK  251  A    between atoms: _566  and  _568
REMARK  252  A    between atoms: _568  and  _569
REMARK  253  A    between atoms: _568  and  _571
REMARK  254  A    between atoms: _571  and  _572
REMARK  255  A    between atoms: _575  and  _577
REMARK  256  A    between atoms: _577  and  _578
REMARK  257  A    between atoms: _577  and  _580
REMARK  258  A    between atoms: _580  and  _581
REMARK  259  A    between atoms: _587  and  _589
REMARK  260  A    between atoms: _589  and  _590
REMARK  261  A    between atoms: _592  and  _594
REMARK  262  A    between atoms: _594  and  _595
REMARK  263  A    between atoms: _594  and  _597
REMARK  264  A    between atoms: _597  and  _598
REMARK  265  A    between atoms: _601  and  _603
REMARK  266  A    between atoms: _603  and  _604
REMARK  267  A    between atoms: _607  and  _609
REMARK  268  A    between atoms: _609  and  _610
REMARK  269  A    between atoms: _609  and  _612
REMARK  270  A    between atoms: _614  and  _616
REMARK  271  A    between atoms: _616  and  _617
REMARK  272  A    between atoms: _619  and  _621
REMARK  273  A    between atoms: _621  and  _622
REMARK  274  A    between atoms: _621  and  _624
REMARK  275  A    between atoms: _624  and  _625
REMARK  276  A    between atoms: _631  and  _633
REMARK  277  A    between atoms: _633  and  _634
REMARK  278  A    between atoms: _633  and  _636
REMARK  279  A    between atoms: _636  and  _637
REMARK  280  A    between atoms: _642  and  _643
REMARK                            x       y       z     vdW  Elec       q    Type
REMARK                         _______ _______ _______ _____ _____    ______ ____
ROOT
ATOM      1  C   CYS A   1       1.693  30.831  22.403  0.00  0.00    +0.239 C 
ATOM      2  O   CYS A   1       0.568  30.437  22.135  0.00  0.00    -0.274 OA
ATOM      3  N   GLY A   2       2.192  31.982  21.977  0.00  0.00    -0.297 N 
ATOM      4  H   GLY A   2       3.174  32.213  22.228  0.00  0.00    +0.150 HD
ENDROOT
BRANCH   1   5
ATOM      5  CA  CYS A   1       2.638  29.989  23.254  0.00  0.00    +0.156 C 
BRANCH   5   6
ATOM      6  N   CYS A   1       1.917  28.965  23.999  0.00  0.00    -0.237 NA
ATOM      7  H   CYS A   1       1.047  28.561  23.597  0.00  0.00    +0.142 HD
ENDBRANCH   5   6
BRANCH   5   8
ATOM      8  CB  CYS A   1       3.716  29.350  22.384  0.00  0.00    +0.095 C 
ATOM      9  SG  CYS A   1       3.123  28.292  21.042  0.00  0.00    -0.080 S 
ENDBRANCH   5   8
ENDBRANCH   1   5
BRANCH   3  10
ATOM     10  CA  GLY A   2       1.445  32.941  21.178  0.00  0.00    +0.163 C 
BRANCH  10  11
ATOM     11  C   GLY A   2       1.516  34.294  21.846  0.00  0.00    +0.229 C 
ATOM     12  O   GLY A   2       2.242  34.480  22.810  0.00  0.00    -0.286 OA
ENDBRANCH  10  11
ENDBRANCH   3  10
TORSDOF 5
REMARK  Name = ../refined-set-2016/1xh9/1xh9_pocket.pdb
REMARK  280 active torsions:
REMARK  status: ('A' for Active; 'I' for Inactive)
REMARK    1  A    between atoms: _1  and  _3
REMARK    2  A    between atoms: _3  and  _4
REMARK    3  A    between atoms: _3  and  _6
REMARK    4  A    between atoms: _6  and  _7
REMARK    5  A    between atoms: _10  and  _12
REMARK    6  A    between atoms: _12  and  _13
REMARK    7  A    between atoms: _12  and  _15
REMARK    8  A    between atoms: _15  and  _16
REMARK    9  A    between atoms: _19  and  _21
REMARK   10  A    between atoms: _21  and  _22
REMARK   11  A    between atoms: _24  and  _26
REMARK   12  A    between atoms: _26  and  _27
REMARK   13  A    between atoms: _26  and  _29
REMARK   14  A    between atoms: _29  and  _30
REMARK   15  A    between atoms: _33  and  _35
REMARK   16  A    between atoms: _35  and  _36
REMARK   17  A    between atoms: _38  and  _40
REMARK   18  A    between atoms: _40  and  _41
REMARK   19  A    between atoms: _40  and  _43
REMARK   20  A    between atoms: _43  and  _44
REMARK   21  A    between atoms: _46  and  _48
REMARK   22  A    between atoms: _48  and  _49
REMARK   23  A    between atoms: _48  and  _51
REMARK   24  A    between atoms: _51  and  _52
REMARK   25  A    between atoms: _58  and  _60
REMARK   26  A    between atoms: _60  and  _61
REMARK   27  A    between atoms: _63  and  _65
REMARK   28  A    between atoms: _65  and  _66
REMARK   29  A    between atoms: _65  and  _68
REMARK   30  A    between atoms: _68  and  _69
REMARK   31  A    between atoms: _69  and  _70
REMARK   32  A    between atoms: _70  and  _71
REMARK   33  A    between atoms: _80  and  _82
REMARK   34  A    between atoms: _82  and  _83
REMARK   35  A    between atoms: _82  and  _85
REMARK   36  A    between atoms: _88  and  _90
REMARK   37  A    between atoms: _90  and  _91
REMARK   38  A    between atoms: _90  and  _93
REMARK   39  A    between atoms: _93  and  _94
REMARK   40  A    between atoms: _94  and  _95
REMARK   41  A    between atoms: _97  and  _99
REMARK   42  A    between atoms: _99  and  _100
REMARK   43  A    between atoms: _99  and  _102
REMARK   44  A    between atoms: _102  and  _103
REMARK   45  A    between atoms: _106  and  _108
REMARK   46  A    between atoms: _108  and  _109
REMARK   47  A    between atoms: _108  and  _111
REMARK   48  A    between atoms: _111  and  _112
REMARK   49  A    between atoms: _117  and  _118
REMARK   50  A    between atoms: _120  and  _122
REMARK   51  A    between atoms: _122  and  _123
REMARK   52  A    between atoms: _126  and  _128
REMARK   53  A    between atoms: _128  and  _129
REMARK   54  A    between atoms: _128  and  _131
REMARK   55  A    between atoms: _131  and  _132
REMARK   56  A    between atoms: _132  and  _133
REMARK   57  A    between atoms: _135  and  _137
REMARK   58  A    between atoms: _137  and  _138
REMARK   59  A    between atoms: _137  and  _140
REMARK   60  A    between atoms: _140  and  _141
REMARK   61  A    between atoms: _141  and  _142
REMARK   62  A    between atoms: _142  and  _143
REMARK   63  A    between atoms: _143  and  _144
REMARK   64  A    between atoms: _148  and  _150
REMARK   65  A    between atoms: _150  and  _151
REMARK   66  A    between atoms: _150  and  _153
REMARK   67  A    between atoms: _153  and  _154
REMARK   68  A    between atoms: _157  and  _159
REMARK   69  A    between atoms: _159  and  _160
REMARK   70  A    between atoms: _159  and  _162
REMARK   71  A    between atoms: _162  and  _163
REMARK   72  A    between atoms: _166  and  _168
REMARK   73  A    between atoms: _168  and  _169
REMARK   74  A    between atoms: _168  and  _171
REMARK   75  A    between atoms: _171  and  _172
REMARK   76  A    between atoms: _175  and  _177
REMARK   77  A    between atoms: _177  and  _178
REMARK   78  A    between atoms: _177  and  _180
REMARK   79  A    between atoms: _180  and  _181
REMARK   80  A    between atoms: _181  and  _182
REMARK   81  A    between atoms: _182  and  _183
REMARK   82  A    between atoms: _183  and  _184
REMARK   83  A    between atoms: _188  and  _190
REMARK   84  A    between atoms: _190  and  _191
REMARK   85  A    between atoms: _190  and  _193
REMARK   86  A    between atoms: _196  and  _198
REMARK   87  A    between atoms: _198  and  _199
REMARK   88  A    between atoms: _198  and  _201
REMARK   89  A    between atoms: _201  and  _202
REMARK   90  A    between atoms: _205  and  _207
REMARK   91  A    between atoms: _207  and  _208
REMARK   92  A    between atoms: _207  and  _210
REMARK   93  A    between atoms: _210  and  _211
REMARK   94  A    between atoms: _211  and  _212
REMARK   95  A    between atoms: _212  and  _213
REMARK   96  A    between atoms: _213  and  _214
REMARK   97  A    between atoms: _218  and  _220
REMARK   98  A    between atoms: _220  and  _221
REMARK   99  A    between atoms: _220  and  _223
REMARK  100  A    between atoms: _223  and  _224
REMARK  101  A    between atoms: _224  and  _225
REMARK  102  A    between atoms: _228  and  _230
REMARK  103  A    between atoms: _230  and  _231
REMARK  104  A    between atoms: _230  and  _233
REMARK  105  A    between atoms: _233  and  _234
REMARK  106  A    between atoms: _237  and  _239
REMARK  107  A    between atoms: _239  and  _240
REMARK  108  A    between atoms: _239  and  _242
REMARK  109  A    between atoms: _242  and  _243
REMARK  110  A    between atoms: _243  and  _244
REMARK  111  A    between atoms: _247  and  _249
REMARK  112  A    between atoms: _249  and  _250
REMARK  113  A    between atoms: _249  and  _252
REMARK  114  A    between atoms: _252  and  _253
REMARK  115  A    between atoms: _258  and  _260
REMARK  116  A    between atoms: _260  and  _261
REMARK  117  A    between atoms: _260  and  _263
REMARK  118  A    between atoms: _263  and  _264
REMARK  119  A    between atoms: _267  and  _269
REMARK  120  A    between atoms: _269  and  _270
REMARK  121  A    between atoms: _269  and  _272
REMARK  122  A    between atoms: _272  and  _273
REMARK  123  A    between atoms: _276  and  _278
REMARK  124  A    between atoms: _278  and  _279
REMARK  125  A    between atoms: _278  and  _281
REMARK  126  A    between atoms: _281  and  _282
REMARK  127  A    between atoms: _287  and  _289
REMARK  128  A    between atoms: _289  and  _290
REMARK  129  A    between atoms: _289  and  _292
REMARK  130  A    between atoms: _292  and  _293
REMARK  131  A    between atoms: _293  and  _294
REMARK  132  A    between atoms: _297  and  _299
REMARK  133  A    between atoms: _299  and  _300
REMARK  134  A    between atoms: _299  and  _302
REMARK  135  A    between atoms: _302  and  _303
REMARK  136  A    between atoms: _303  and  _304
REMARK  137  A    between atoms: _304  and  _305
REMARK  138  A    between atoms: _305  and  _306
REMARK  139  A    between atoms: _310  and  _312
REMARK  140  A    between atoms: _312  and  _313
REMARK  141  A    between atoms: _312  and  _315
REMARK  142  A    between atoms: _315  and  _316
REMARK  143  A    between atoms: _319  and  _321
REMARK  144  A    between atoms: _321  and  _322
REMARK  145  A    between atoms: _321  and  _324
REMARK  146  A    between atoms: _327  and  _329
REMARK  147  A    between atoms: _329  and  _330
REMARK  148  A    between atoms: _329  and  _332
REMARK  149  A    between atoms: _332  and  _333
REMARK  150  A    between atoms: _333  and  _334
REMARK  151  A    between atoms: _334  and  _335
REMARK  152  A    between atoms: _335  and  _336
REMARK  153  A    between atoms: _340  and  _342
REMARK  154  A    between atoms: _342  and  _343
REMARK  155  A    between atoms: _342  and  _345
REMARK  156  A    between atoms: _345  and  _346
REMARK  157  A    between atoms: _349  and  _351
REMARK  158  A    between atoms: _351  and  _352
REMARK  159  A    between atoms: _351  and  _354
REMARK  160  A    between atoms: _354  and  _355
REMARK  161  A    between atoms: _355  and  _356
REMARK  162  A    between atoms: _358  and  _360
REMARK  163  A    between atoms: _360  and  _361
REMARK  164  A    between atoms: _360  and  _363
REMARK  165  A    between atoms: _363  and  _364
REMARK  166  A    between atoms: _364  and  _365
REMARK  167  A    between atoms: _367  and  _369
REMARK  168  A    between atoms: _369  and  _370
REMARK  169  A    between atoms: _369  and  _372
REMARK  170  A    between atoms: _372  and  _373
REMARK  171  A    between atoms: _373  and  _374
REMARK  172  A    between atoms: _377  and  _379
REMARK  173  A    between atoms: _379  and  _380
REMARK  174  A    between atoms: _379  and  _382
REMARK  175  A    between atoms: _382  and  _383
REMARK  176  A    between atoms: _388  and  _389
REMARK  177  A    between atoms: _391  and  _393
REMARK  178  A    between atoms: _393  and  _394
REMARK  179  A    between atoms: _398  and  _399
REMARK  180  A    between atoms: _404  and  _406
REMARK  181  A    between atoms: _406  and  _407
REMARK  182  A    between atoms: _409  and  _411
REMARK  183  A    between atoms: _411  and  _412
REMARK  184  A    between atoms: _414  and  _416
REMARK  185  A    between atoms: _416  and  _417
REMARK  186  A    between atoms: _416  and  _419
REMARK  187  A    between atoms: _419  and  _420
REMARK  188  A    between atoms: _420  and  _421
REMARK  189  A    between atoms: _424  and  _426
REMARK  190  A    between atoms: _426  and  _427
REMARK  191  A    between atoms: _426  and  _429
REMARK  192  A    between atoms: _429  and  _430
REMARK  193  A    between atoms: _430  and  _431
REMARK  194  A    between atoms: _433  and  _435
REMARK  195  A    between atoms: _435  and  _436
REMARK  196  A    between atoms: _435  and  _438
REMARK  197  A    between atoms: _438  and  _439
REMARK  198  A    between atoms: _445  and  _447
REMARK  199  A    between atoms: _447  and  _448
REMARK  200  A    between atoms: _447  and  _450
REMARK  201  A    between atoms: _450  and  _451
REMARK  202  A    between atoms: _456  and  _457
REMARK  203  A    between atoms: _459  and  _461
REMARK  204  A    between atoms: _461  and  _462
REMARK  205  A    between atoms: _461  and  _464
REMARK  206  A    between atoms: _464  and  _465
REMARK  207  A    between atoms: _468  and  _470
REMARK  208  A    between atoms: _470  and  _471
REMARK  209  A    between atoms: _470  and  _473
REMARK  210  A    between atoms: _473  and  _474
REMARK  211  A    between atoms: _474  and  _475
REMARK  212  A    between atoms: _475  and  _476
REMARK  213  A    between atoms: _476  and  _477
REMARK  214  A    between atoms: _482  and  _483
REMARK  215  A    between atoms: _488  and  _490
REMARK  216  A    between atoms: _490  and  _491
REMARK  217  A    between atoms: _490  and  _493
REMARK  218  A    between atoms: _493  and  _494
REMARK  219  A    between atoms: _494  and  _495
REMARK  220  A    between atoms: _498  and  _500
REMARK  221  A    between atoms: _500  and  _501
REMARK  222  A    between atoms: _500  and  _503
REMARK  223  A    between atoms: _503  and  _504
REMARK  224  A    between atoms: _509  and  _511
REMARK  225  A    between atoms: _511  and  _512
REMARK  226  A    between atoms: _511  and  _514
REMARK  227  A    between atoms: _514  and  _515
REMARK  228  A    between atoms: _518  and  _520
REMARK  229  A    between atoms: _520  and  _521
REMARK  230  A    between atoms: _520  and  _523
REMARK  231  A    between atoms: _523  and  _524
REMARK  232  A    between atoms: _524  and  _525
REMARK  233  A    between atoms: _527  and  _529
REMARK  234  A    between atoms: _529  and  _530
REMARK  235  A    between atoms: _529  and  _532
REMARK  236  A    between atoms: _532  and  _533
REMARK  237  A    between atoms: _536  and  _538
REMARK  238  A    between atoms: _538  and  _539
REMARK  239  A    between atoms: _538  and  _541
REMARK  240  A    between atoms: _541  and  _542
REMARK  241  A    between atoms: _542  and  _543
REMARK  242  A    between atoms: _543  and  _544
REMARK  243  A    between atoms: _544  and  _545
REMARK  244  A    between atoms: _549  and  _551
REMARK  245  A    between atoms: _551  and  _552
REMARK  246  A    between atoms: _551  and  _554
REMARK  247  A    between atoms: _557  and  _559
REMARK  248  A    between atoms: _559  and  _560
REMARK  249  A    between atoms: _559  and  _562
REMARK  250  A    between atoms: _562  and  _563
REMARK  251  A    between atoms: _566  and  _568
REMARK  252  A    between atoms: _568  and  _569
REMARK  253  A    between atoms: _568  and  _571
REMARK  254  A    between atoms: _571  and  _572
REMARK  255  A    between atoms: _575  and  _577
REMARK  256  A    between atoms: _577  and  _578
REMARK  257  A    between atoms: _577  and  _580
REMARK  258  A    between atoms: _580  and  _581
REMARK  259  A    between atoms: _587  and  _589
REMARK  260  A    between atoms: _589  and  _590
REMARK  261  A    between atoms: _592  and  _594
REMARK  262  A    between atoms: _594  and  _595
REMARK  263  A    between atoms: _594  and  _597
REMARK  264  A    between atoms: _597  and  _598
REMARK  265  A    between atoms: _601  and  _603
REMARK  266  A    between atoms: _603  and  _604
REMARK  267  A    between atoms: _607  and  _609
REMARK  268  A    between atoms: _609  and  _610
REMARK  269  A    between atoms: _609  and  _612
REMARK  270  A    between atoms: _614  and  _616
REMARK  271  A    between atoms: _616  and  _617
REMARK  272  A    between atoms: _619  and  _621
REMARK  273  A    between atoms: _621  and  _622
REMARK  274  A    between atoms: _621  and  _624
REMARK  275  A    between atoms: _624  and  _625
REMARK  276  A    between atoms: _631  and  _633
REMARK  277  A    between atoms: _633  and  _634
REMARK  278  A    between atoms: _633  and  _636
REMARK  279  A    between atoms: _636  and  _637
REMARK  280  A    between atoms: _642  and  _643
REMARK                            x       y       z     vdW  Elec       q    Type
REMARK                         _______ _______ _______ _____ _____    ______ ____
ROOT
ATOM      1  CB  PHE A   1      10.927  50.285   9.093  0.00  0.00    +0.051 C 
ENDROOT
BRANCH   1   2
ATOM      2  CG  PHE A   1      10.521  49.130   8.235  0.00  0.00    -0.020 A 
ATOM      3  CD2 PHE A   1      10.170  47.902   8.806  0.00  0.00    -0.004 A 
ATOM      4  CE2 PHE A   1       9.792  46.834   7.999  0.00  0.00    -0.000 A 
ATOM      5  CZ  PHE A   1       9.739  46.969   6.640  0.00  0.00    -0.000 A 
ATOM      6  CE1 PHE A   1      10.058  48.196   6.050  0.00  0.00    -0.000 A 
ATOM      7  CD1 PHE A   1      10.468  49.264   6.861  0.00  0.00    -0.004 A 
ENDBRANCH   1   2
BRANCH   1   8
ATOM      8  CA  PHE A   1       9.767  51.205   9.475  0.00  0.00    +0.137 C 
BRANCH   8   9
ATOM      9  N   PHE A   1       9.308  51.926   8.302  0.00  0.00    -0.239 NA
ATOM     10  H   PHE A   1       9.981  52.537   7.797  0.00  0.00    +0.142 HD
ENDBRANCH   8   9
BRANCH   8  11
ATOM     11  C   PHE A   1      10.246  52.142  10.572  0.00  0.00    +0.224 C 
ATOM     12  O   PHE A   1      10.798  53.218  10.289  0.00  0.00    -0.287 OA
ENDBRANCH   8  11
ENDBRANCH   1   8
TORSDOF 4
REMARK  Name = ../refined-set-2016/1xh9/1xh9_pocket.pdb
REMARK  280 active torsions:
REMARK  status: ('A' for Active; 'I' for Inactive)
REMARK    1  A    between atoms: _1  and  _3
REMARK    2  A    between atoms: _3  and  _4
REMARK    3  A    between atoms: _3  and  _6
REMARK    4  A    between atoms: _6  and  _7
REMARK    5  A    between atoms: _10  and  _12
REMARK    6  A    between atoms: _12  and  _13
REMARK    7  A    between atoms: _12  and  _15
REMARK    8  A    between atoms: _15  and  _16
REMARK    9  A    between atoms: _19  and  _21
REMARK   10  A    between atoms: _21  and  _22
REMARK   11  A    between atoms: _24  and  _26
REMARK   12  A    between atoms: _26  and  _27
REMARK   13  A    between atoms: _26  and  _29
REMARK   14  A    between atoms: _29  and  _30
REMARK   15  A    between atoms: _33  and  _35
REMARK   16  A    between atoms: _35  and  _36
REMARK   17  A    between atoms: _38  and  _40
REMARK   18  A    between atoms: _40  and  _41
REMARK   19  A    between atoms: _40  and  _43
REMARK   20  A    between atoms: _43  and  _44
REMARK   21  A    between atoms: _46  and  _48
REMARK   22  A    between atoms: _48  and  _49
REMARK   23  A    between atoms: _48  and  _51
REMARK   24  A    between atoms: _51  and  _52
REMARK   25  A    between atoms: _58  and  _60
REMARK   26  A    between atoms: _60  and  _61
REMARK   27  A    between atoms: _63  and  _65
REMARK   28  A    between atoms: _65  and  _66
REMARK   29  A    between atoms: _65  and  _68
REMARK   30  A    between atoms: _68  and  _69
REMARK   31  A    between atoms: _69  and  _70
REMARK   32  A    between atoms: _70  and  _71
REMARK   33  A    between atoms: _80  and  _82
REMARK   34  A    between atoms: _82  and  _83
REMARK   35  A    between atoms: _82  and  _85
REMARK   36  A    between atoms: _88  and  _90
REMARK   37  A    between atoms: _90  and  _91
REMARK   38  A    between atoms: _90  and  _93
REMARK   39  A    between atoms: _93  and  _94
REMARK   40  A    between atoms: _94  and  _95
REMARK   41  A    between atoms: _97  and  _99
REMARK   42  A    between atoms: _99  and  _100
REMARK   43  A    between atoms: _99  and  _102
REMARK   44  A    between atoms: _102  and  _103
REMARK   45  A    between atoms: _106  and  _108
REMARK   46  A    between atoms: _108  and  _109
REMARK   47  A    between atoms: _108  and  _111
REMARK   48  A    between atoms: _111  and  _112
REMARK   49  A    between atoms: _117  and  _118
REMARK   50  A    between atoms: _120  and  _122
REMARK   51  A    between atoms: _122  and  _123
REMARK   52  A    between atoms: _126  and  _128
REMARK   53  A    between atoms: _128  and  _129
REMARK   54  A    between atoms: _128  and  _131
REMARK   55  A    between atoms: _131  and  _132
REMARK   56  A    between atoms: _132  and  _133
REMARK   57  A    between atoms: _135  and  _137
REMARK   58  A    between atoms: _137  and  _138
REMARK   59  A    between atoms: _137  and  _140
REMARK   60  A    between atoms: _140  and  _141
REMARK   61  A    between atoms: _141  and  _142
REMARK   62  A    between atoms: _142  and  _143
REMARK   63  A    between atoms: _143  and  _144
REMARK   64  A    between atoms: _148  and  _150
REMARK   65  A    between atoms: _150  and  _151
REMARK   66  A    between atoms: _150  and  _153
REMARK   67  A    between atoms: _153  and  _154
REMARK   68  A    between atoms: _157  and  _159
REMARK   69  A    between atoms: _159  and  _160
REMARK   70  A    between atoms: _159  and  _162
REMARK   71  A    between atoms: _162  and  _163
REMARK   72  A    between atoms: _166  and  _168
REMARK   73  A    between atoms: _168  and  _169
REMARK   74  A    between atoms: _168  and  _171
REMARK   75  A    between atoms: _171  and  _172
REMARK   76  A    between atoms: _175  and  _177
REMARK   77  A    between atoms: _177  and  _178
REMARK   78  A    between atoms: _177  and  _180
REMARK   79  A    between atoms: _180  and  _181
REMARK   80  A    between atoms: _181  and  _182
REMARK   81  A    between atoms: _182  and  _183
REMARK   82  A    between atoms: _183  and  _184
REMARK   83  A    between atoms: _188  and  _190
REMARK   84  A    between atoms: _190  and  _191
REMARK   85  A    between atoms: _190  and  _193
REMARK   86  A    between atoms: _196  and  _198
REMARK   87  A    between atoms: _198  and  _199
REMARK   88  A    between atoms: _198  and  _201
REMARK   89  A    between atoms: _201  and  _202
REMARK   90  A    between atoms: _205  and  _207
REMARK   91  A    between atoms: _207  and  _208
REMARK   92  A    between atoms: _207  and  _210
REMARK   93  A    between atoms: _210  and  _211
REMARK   94  A    between atoms: _211  and  _212
REMARK   95  A    between atoms: _212  and  _213
REMARK   96  A    between atoms: _213  and  _214
REMARK   97  A    between atoms: _218  and  _220
REMARK   98  A    between atoms: _220  and  _221
REMARK   99  A    between atoms: _220  and  _223
REMARK  100  A    between atoms: _223  and  _224
REMARK  101  A    between atoms: _224  and  _225
REMARK  102  A    between atoms: _228  and  _230
REMARK  103  A    between atoms: _230  and  _231
REMARK  104  A    between atoms: _230  and  _233
REMARK  105  A    between atoms: _233  and  _234
REMARK  106  A    between atoms: _237  and  _239
REMARK  107  A    between atoms: _239  and  _240
REMARK  108  A    between atoms: _239  and  _242
REMARK  109  A    between atoms: _242  and  _243
REMARK  110  A    between atoms: _243  and  _244
REMARK  111  A    between atoms: _247  and  _249
REMARK  112  A    between atoms: _249  and  _250
REMARK  113  A    between atoms: _249  and  _252
REMARK  114  A    between atoms: _252  and  _253
REMARK  115  A    between atoms: _258  and  _260
REMARK  116  A    between atoms: _260  and  _261
REMARK  117  A    between atoms: _260  and  _263
REMARK  118  A    between atoms: _263  and  _264
REMARK  119  A    between atoms: _267  and  _269
REMARK  120  A    between atoms: _269  and  _270
REMARK  121  A    between atoms: _269  and  _272
REMARK  122  A    between atoms: _272  and  _273
REMARK  123  A    between atoms: _276  and  _278
REMARK  124  A    between atoms: _278  and  _279
REMARK  125  A    between atoms: _278  and  _281
REMARK  126  A    between atoms: _281  and  _282
REMARK  127  A    between atoms: _287  and  _289
REMARK  128  A    between atoms: _289  and  _290
REMARK  129  A    between atoms: _289  and  _292
REMARK  130  A    between atoms: _292  and  _293
REMARK  131  A    between atoms: _293  and  _294
REMARK  132  A    between atoms: _297  and  _299
REMARK  133  A    between atoms: _299  and  _300
REMARK  134  A    between atoms: _299  and  _302
REMARK  135  A    between atoms: _302  and  _303
REMARK  136  A    between atoms: _303  and  _304
REMARK  137  A    between atoms: _304  and  _305
REMARK  138  A    between atoms: _305  and  _306
REMARK  139  A    between atoms: _310  and  _312
REMARK  140  A    between atoms: _312  and  _313
REMARK  141  A    between atoms: _312  and  _315
REMARK  142  A    between atoms: _315  and  _316
REMARK  143  A    between atoms: _319  and  _321
REMARK  144  A    between atoms: _321  and  _322
REMARK  145  A    between atoms: _321  and  _324
REMARK  146  A    between atoms: _327  and  _329
REMARK  147  A    between atoms: _329  and  _330
REMARK  148  A    between atoms: _329  and  _332
REMARK  149  A    between atoms: _332  and  _333
REMARK  150  A    between atoms: _333  and  _334
REMARK  151  A    between atoms: _334  and  _335
REMARK  152  A    between atoms: _335  and  _336
REMARK  153  A    between atoms: _340  and  _342
REMARK  154  A    between atoms: _342  and  _343
REMARK  155  A    between atoms: _342  and  _345
REMARK  156  A    between atoms: _345  and  _346
REMARK  157  A    between atoms: _349  and  _351
REMARK  158  A    between atoms: _351  and  _352
REMARK  159  A    between atoms: _351  and  _354
REMARK  160  A    between atoms: _354  and  _355
REMARK  161  A    between atoms: _355  and  _356
REMARK  162  A    between atoms: _358  and  _360
REMARK  163  A    between atoms: _360  and  _361
REMARK  164  A    between atoms: _360  and  _363
REMARK  165  A    between atoms: _363  and  _364
REMARK  166  A    between atoms: _364  and  _365
REMARK  167  A    between atoms: _367  and  _369
REMARK  168  A    between atoms: _369  and  _370
REMARK  169  A    between atoms: _369  and  _372
REMARK  170  A    between atoms: _372  and  _373
REMARK  171  A    between atoms: _373  and  _374
REMARK  172  A    between atoms: _377  and  _379
REMARK  173  A    between atoms: _379  and  _380
REMARK  174  A    between atoms: _379  and  _382
REMARK  175  A    between atoms: _382  and  _383
REMARK  176  A    between atoms: _388  and  _389
REMARK  177  A    between atoms: _391  and  _393
REMARK  178  A    between atoms: _393  and  _394
REMARK  179  A    between atoms: _398  and  _399
REMARK  180  A    between atoms: _404  and  _406
REMARK  181  A    between atoms: _406  and  _407
REMARK  182  A    between atoms: _409  and  _411
REMARK  183  A    between atoms: _411  and  _412
REMARK  184  A    between atoms: _414  and  _416
REMARK  185  A    between atoms: _416  and  _417
REMARK  186  A    between atoms: _416  and  _419
REMARK  187  A    between atoms: _419  and  _420
REMARK  188  A    between atoms: _420  and  _421
REMARK  189  A    between atoms: _424  and  _426
REMARK  190  A    between atoms: _426  and  _427
REMARK  191  A    between atoms: _426  and  _429
REMARK  192  A    between atoms: _429  and  _430
REMARK  193  A    between atoms: _430  and  _431
REMARK  194  A    between atoms: _433  and  _435
REMARK  195  A    between atoms: _435  and  _436
REMARK  196  A    between atoms: _435  and  _438
REMARK  197  A    between atoms: _438  and  _439
REMARK  198  A    between atoms: _445  and  _447
REMARK  199  A    between atoms: _447  and  _448
REMARK  200  A    between atoms: _447  and  _450
REMARK  201  A    between atoms: _450  and  _451
REMARK  202  A    between atoms: _456  and  _457
REMARK  203  A    between atoms: _459  and  _461
REMARK  204  A    between atoms: _461  and  _462
REMARK  205  A    between atoms: _461  and  _464
REMARK  206  A    between atoms: _464  and  _465
REMARK  207  A    between atoms: _468  and  _470
REMARK  208  A    between atoms: _470  and  _471
REMARK  209  A    between atoms: _470  and  _473
REMARK  210  A    between atoms: _473  and  _474
REMARK  211  A    between atoms: _474  and  _475
REMARK  212  A    between atoms: _475  and  _476
REMARK  213  A    between atoms: _476  and  _477
REMARK  214  A    between atoms: _482  and  _483
REMARK  215  A    between atoms: _488  and  _490
REMARK  216  A    between atoms: _490  and  _491
REMARK  217  A    between atoms: _490  and  _493
REMARK  218  A    between atoms: _493  and  _494
REMARK  219  A    between atoms: _494  and  _495
REMARK  220  A    between atoms: _498  and  _500
REMARK  221  A    between atoms: _500  and  _501
REMARK  222  A    between atoms: _500  and  _503
REMARK  223  A    between atoms: _503  and  _504
REMARK  224  A    between atoms: _509  and  _511
REMARK  225  A    between atoms: _511  and  _512
REMARK  226  A    between atoms: _511  and  _514
REMARK  227  A    between atoms: _514  and  _515
REMARK  228  A    between atoms: _518  and  _520
REMARK  229  A    between atoms: _520  and  _521
REMARK  230  A    between atoms: _520  and  _523
REMARK  231  A    between atoms: _523  and  _524
REMARK  232  A    between atoms: _524  and  _525
REMARK  233  A    between atoms: _527  and  _529
REMARK  234  A    between atoms: _529  and  _530
REMARK  235  A    between atoms: _529  and  _532
REMARK  236  A    between atoms: _532  and  _533
REMARK  237  A    between atoms: _536  and  _538
REMARK  238  A    between atoms: _538  and  _539
REMARK  239  A    between atoms: _538  and  _541
REMARK  240  A    between atoms: _541  and  _542
REMARK  241  A    between atoms: _542  and  _543
REMARK  242  A    between atoms: _543  and  _544
REMARK  243  A    between atoms: _544  and  _545
REMARK  244  A    between atoms: _549  and  _551
REMARK  245  A    between atoms: _551  and  _552
REMARK  246  A    between atoms: _551  and  _554
REMARK  247  A    between atoms: _557  and  _559
REMARK  248  A    between atoms: _559  and  _560
REMARK  249  A    between atoms: _559  and  _562
REMARK  250  A    between atoms: _562  and  _563
REMARK  251  A    between atoms: _566  and  _568
REMARK  252  A    between atoms: _568  and  _569
REMARK  253  A    between atoms: _568  and  _571
REMARK  254  A    between atoms: _571  and  _572
REMARK  255  A    between atoms: _575  and  _577
REMARK  256  A    between atoms: _577  and  _578
REMARK  257  A    between atoms: _577  and  _580
REMARK  258  A    between atoms: _580  and  _581
REMARK  259  A    between atoms: _587  and  _589
REMARK  260  A    between atoms: _589  and  _590
REMARK  261  A    between atoms: _592  and  _594
REMARK  262  A    between atoms: _594  and  _595
REMARK  263  A    between atoms: _594  and  _597
REMARK  264  A    between atoms: _597  and  _598
REMARK  265  A    between atoms: _601  and  _603
REMARK  266  A    between atoms: _603  and  _604
REMARK  267  A    between atoms: _607  and  _609
REMARK  268  A    between atoms: _609  and  _610
REMARK  269  A    between atoms: _609  and  _612
REMARK  270  A    between atoms: _614  and  _616
REMARK  271  A    between atoms: _616  and  _617
REMARK  272  A    between atoms: _619  and  _621
REMARK  273  A    between atoms: _621  and  _622
REMARK  274  A    between atoms: _621  and  _624
REMARK  275  A    between atoms: _624  and  _625
REMARK  276  A    between atoms: _631  and  _633
REMARK  277  A    between atoms: _633  and  _634
REMARK  278  A    between atoms: _633  and  _636
REMARK  279  A    between atoms: _636  and  _637
REMARK  280  A    between atoms: _642  and  _643
REMARK                            x       y       z     vdW  Elec       q    Type
REMARK                         _______ _______ _______ _____ _____    ______ ____
ROOT
ATOM      1  CG  TYR A   1      14.398  48.651  15.855  0.00  0.00    -0.020 A 
ATOM      2  CD2 TYR A   1      13.803  48.098  16.970  0.00  0.00    -0.001 A 
ATOM      3  CE2 TYR A   1      12.486  47.683  16.949  0.00  0.00    +0.036 A 
ATOM      4  CZ  TYR A   1      11.746  47.825  15.789  0.00  0.00    +0.134 A 
ATOM      5  CE1 TYR A   1      12.312  48.364  14.669  0.00  0.00    +0.036 A 
ATOM      6  CD1 TYR A   1      13.643  48.762  14.699  0.00  0.00    -0.001 A 
ENDROOT
BRANCH   4   7
ATOM      7  OH  TYR A   1      10.429  47.406  15.770  0.00  0.00    -0.506 OA
ATOM      8  HH  TYR A   1      10.043  47.575  14.874  0.00  0.00    +0.292 HD
ENDBRANCH   4   7
BRANCH   1   9
ATOM      9  CB  TYR A   1      15.844  49.091  15.896  0.00  0.00    +0.051 C 
BRANCH   9  10
ATOM     10  CA  TYR A   1      16.033  50.567  16.247  0.00  0.00    +0.137 C 
BRANCH  10  11
ATOM     11  N   TYR A   1      15.526  51.402  15.186  0.00  0.00    -0.239 NA
ATOM     12  H   TYR A   1      16.006  51.363  14.264  0.00  0.00    +0.142 HD
ENDBRANCH  10  11
BRANCH  10  13
ATOM     13  C   TYR A   1      17.533  50.843  16.416  0.00  0.00    +0.224 C 
ATOM     14  O   TYR A   1      18.223  51.152  15.461  0.00  0.00    -0.287 OA
ENDBRANCH  10  13
ENDBRANCH   9  10
ENDBRANCH   1   9
TORSDOF 5
REMARK  Name = ../refined-set-2016/1xh9/1xh9_pocket.pdb
REMARK  280 active torsions:
REMARK  status: ('A' for Active; 'I' for Inactive)
REMARK    1  A    between atoms: _1  and  _3
REMARK    2  A    between atoms: _3  and  _4
REMARK    3  A    between atoms: _3  and  _6
REMARK    4  A    between atoms: _6  and  _7
REMARK    5  A    between atoms: _10  and  _12
REMARK    6  A    between atoms: _12  and  _13
REMARK    7  A    between atoms: _12  and  _15
REMARK    8  A    between atoms: _15  and  _16
REMARK    9  A    between atoms: _19  and  _21
REMARK   10  A    between atoms: _21  and  _22
REMARK   11  A    between atoms: _24  and  _26
REMARK   12  A    between atoms: _26  and  _27
REMARK   13  A    between atoms: _26  and  _29
REMARK   14  A    between atoms: _29  and  _30
REMARK   15  A    between atoms: _33  and  _35
REMARK   16  A    between atoms: _35  and  _36
REMARK   17  A    between atoms: _38  and  _40
REMARK   18  A    between atoms: _40  and  _41
REMARK   19  A    between atoms: _40  and  _43
REMARK   20  A    between atoms: _43  and  _44
REMARK   21  A    between atoms: _46  and  _48
REMARK   22  A    between atoms: _48  and  _49
REMARK   23  A    between atoms: _48  and  _51
REMARK   24  A    between atoms: _51  and  _52
REMARK   25  A    between atoms: _58  and  _60
REMARK   26  A    between atoms: _60  and  _61
REMARK   27  A    between atoms: _63  and  _65
REMARK   28  A    between atoms: _65  and  _66
REMARK   29  A    between atoms: _65  and  _68
REMARK   30  A    between atoms: _68  and  _69
REMARK   31  A    between atoms: _69  and  _70
REMARK   32  A    between atoms: _70  and  _71
REMARK   33  A    between atoms: _80  and  _82
REMARK   34  A    between atoms: _82  and  _83
REMARK   35  A    between atoms: _82  and  _85
REMARK   36  A    between atoms: _88  and  _90
REMARK   37  A    between atoms: _90  and  _91
REMARK   38  A    between atoms: _90  and  _93
REMARK   39  A    between atoms: _93  and  _94
REMARK   40  A    between atoms: _94  and  _95
REMARK   41  A    between atoms: _97  and  _99
REMARK   42  A    between atoms: _99  and  _100
REMARK   43  A    between atoms: _99  and  _102
REMARK   44  A    between atoms: _102  and  _103
REMARK   45  A    between atoms: _106  and  _108
REMARK   46  A    between atoms: _108  and  _109
REMARK   47  A    between atoms: _108  and  _111
REMARK   48  A    between atoms: _111  and  _112
REMARK   49  A    between atoms: _117  and  _118
REMARK   50  A    between atoms: _120  and  _122
REMARK   51  A    between atoms: _122  and  _123
REMARK   52  A    between atoms: _126  and  _128
REMARK   53  A    between atoms: _128  and  _129
REMARK   54  A    between atoms: _128  and  _131
REMARK   55  A    between atoms: _131  and  _132
REMARK   56  A    between atoms: _132  and  _133
REMARK   57  A    between atoms: _135  and  _137
REMARK   58  A    between atoms: _137  and  _138
REMARK   59  A    between atoms: _137  and  _140
REMARK   60  A    between atoms: _140  and  _141
REMARK   61  A    between atoms: _141  and  _142
REMARK   62  A    between atoms: _142  and  _143
REMARK   63  A    between atoms: _143  and  _144
REMARK   64  A    between atoms: _148  and  _150
REMARK   65  A    between atoms: _150  and  _151
REMARK   66  A    between atoms: _150  and  _153
REMARK   67  A    between atoms: _153  and  _154
REMARK   68  A    between atoms: _157  and  _159
REMARK   69  A    between atoms: _159  and  _160
REMARK   70  A    between atoms: _159  and  _162
REMARK   71  A    between atoms: _162  and  _163
REMARK   72  A    between atoms: _166  and  _168
REMARK   73  A    between atoms: _168  and  _169
REMARK   74  A    between atoms: _168  and  _171
REMARK   75  A    between atoms: _171  and  _172
REMARK   76  A    between atoms: _175  and  _177
REMARK   77  A    between atoms: _177  and  _178
REMARK   78  A    between atoms: _177  and  _180
REMARK   79  A    between atoms: _180  and  _181
REMARK   80  A    between atoms: _181  and  _182
REMARK   81  A    between atoms: _182  and  _183
REMARK   82  A    between atoms: _183  and  _184
REMARK   83  A    between atoms: _188  and  _190
REMARK   84  A    between atoms: _190  and  _191
REMARK   85  A    between atoms: _190  and  _193
REMARK   86  A    between atoms: _196  and  _198
REMARK   87  A    between atoms: _198  and  _199
REMARK   88  A    between atoms: _198  and  _201
REMARK   89  A    between atoms: _201  and  _202
REMARK   90  A    between atoms: _205  and  _207
REMARK   91  A    between atoms: _207  and  _208
REMARK   92  A    between atoms: _207  and  _210
REMARK   93  A    between atoms: _210  and  _211
REMARK   94  A    between atoms: _211  and  _212
REMARK   95  A    between atoms: _212  and  _213
REMARK   96  A    between atoms: _213  and  _214
REMARK   97  A    between atoms: _218  and  _220
REMARK   98  A    between atoms: _220  and  _221
REMARK   99  A    between atoms: _220  and  _223
REMARK  100  A    between atoms: _223  and  _224
REMARK  101  A    between atoms: _224  and  _225
REMARK  102  A    between atoms: _228  and  _230
REMARK  103  A    between atoms: _230  and  _231
REMARK  104  A    between atoms: _230  and  _233
REMARK  105  A    between atoms: _233  and  _234
REMARK  106  A    between atoms: _237  and  _239
REMARK  107  A    between atoms: _239  and  _240
REMARK  108  A    between atoms: _239  and  _242
REMARK  109  A    between atoms: _242  and  _243
REMARK  110  A    between atoms: _243  and  _244
REMARK  111  A    between atoms: _247  and  _249
REMARK  112  A    between atoms: _249  and  _250
REMARK  113  A    between atoms: _249  and  _252
REMARK  114  A    between atoms: _252  and  _253
REMARK  115  A    between atoms: _258  and  _260
REMARK  116  A    between atoms: _260  and  _261
REMARK  117  A    between atoms: _260  and  _263
REMARK  118  A    between atoms: _263  and  _264
REMARK  119  A    between atoms: _267  and  _269
REMARK  120  A    between atoms: _269  and  _270
REMARK  121  A    between atoms: _269  and  _272
REMARK  122  A    between atoms: _272  and  _273
REMARK  123  A    between atoms: _276  and  _278
REMARK  124  A    between atoms: _278  and  _279
REMARK  125  A    between atoms: _278  and  _281
REMARK  126  A    between atoms: _281  and  _282
REMARK  127  A    between atoms: _287  and  _289
REMARK  128  A    between atoms: _289  and  _290
REMARK  129  A    between atoms: _289  and  _292
REMARK  130  A    between atoms: _292  and  _293
REMARK  131  A    between atoms: _293  and  _294
REMARK  132  A    between atoms: _297  and  _299
REMARK  133  A    between atoms: _299  and  _300
REMARK  134  A    between atoms: _299  and  _302
REMARK  135  A    between atoms: _302  and  _303
REMARK  136  A    between atoms: _303  and  _304
REMARK  137  A    between atoms: _304  and  _305
REMARK  138  A    between atoms: _305  and  _306
REMARK  139  A    between atoms: _310  and  _312
REMARK  140  A    between atoms: _312  and  _313
REMARK  141  A    between atoms: _312  and  _315
REMARK  142  A    between atoms: _315  and  _316
REMARK  143  A    between atoms: _319  and  _321
REMARK  144  A    between atoms: _321  and  _322
REMARK  145  A    between atoms: _321  and  _324
REMARK  146  A    between atoms: _327  and  _329
REMARK  147  A    between atoms: _329  and  _330
REMARK  148  A    between atoms: _329  and  _332
REMARK  149  A    between atoms: _332  and  _333
REMARK  150  A    between atoms: _333  and  _334
REMARK  151  A    between atoms: _334  and  _335
REMARK  152  A    between atoms: _335  and  _336
REMARK  153  A    between atoms: _340  and  _342
REMARK  154  A    between atoms: _342  and  _343
REMARK  155  A    between atoms: _342  and  _345
REMARK  156  A    between atoms: _345  and  _346
REMARK  157  A    between atoms: _349  and  _351
REMARK  158  A    between atoms: _351  and  _352
REMARK  159  A    between atoms: _351  and  _354
REMARK  160  A    between atoms: _354  and  _355
REMARK  161  A    between atoms: _355  and  _356
REMARK  162  A    between atoms: _358  and  _360
REMARK  163  A    between atoms: _360  and  _361
REMARK  164  A    between atoms: _360  and  _363
REMARK  165  A    between atoms: _363  and  _364
REMARK  166  A    between atoms: _364  and  _365
REMARK  167  A    between atoms: _367  and  _369
REMARK  168  A    between atoms: _369  and  _370
REMARK  169  A    between atoms: _369  and  _372
REMARK  170  A    between atoms: _372  and  _373
REMARK  171  A    between atoms: _373  and  _374
REMARK  172  A    between atoms: _377  and  _379
REMARK  173  A    between atoms: _379  and  _380
REMARK  174  A    between atoms: _379  and  _382
REMARK  175  A    between atoms: _382  and  _383
REMARK  176  A    between atoms: _388  and  _389
REMARK  177  A    between atoms: _391  and  _393
REMARK  178  A    between atoms: _393  and  _394
REMARK  179  A    between atoms: _398  and  _399
REMARK  180  A    between atoms: _404  and  _406
REMARK  181  A    between atoms: _406  and  _407
REMARK  182  A    between atoms: _409  and  _411
REMARK  183  A    between atoms: _411  and  _412
REMARK  184  A    between atoms: _414  and  _416
REMARK  185  A    between atoms: _416  and  _417
REMARK  186  A    between atoms: _416  and  _419
REMARK  187  A    between atoms: _419  and  _420
REMARK  188  A    between atoms: _420  and  _421
REMARK  189  A    between atoms: _424  and  _426
REMARK  190  A    between atoms: _426  and  _427
REMARK  191  A    between atoms: _426  and  _429
REMARK  192  A    between atoms: _429  and  _430
REMARK  193  A    between atoms: _430  and  _431
REMARK  194  A    between atoms: _433  and  _435
REMARK  195  A    between atoms: _435  and  _436
REMARK  196  A    between atoms: _435  and  _438
REMARK  197  A    between atoms: _438  and  _439
REMARK  198  A    between atoms: _445  and  _447
REMARK  199  A    between atoms: _447  and  _448
REMARK  200  A    between atoms: _447  and  _450
REMARK  201  A    between atoms: _450  and  _451
REMARK  202  A    between atoms: _456  and  _457
REMARK  203  A    between atoms: _459  and  _461
REMARK  204  A    between atoms: _461  and  _462
REMARK  205  A    between atoms: _461  and  _464
REMARK  206  A    between atoms: _464  and  _465
REMARK  207  A    between atoms: _468  and  _470
REMARK  208  A    between atoms: _470  and  _471
REMARK  209  A    between atoms: _470  and  _473
REMARK  210  A    between atoms: _473  and  _474
REMARK  211  A    between atoms: _474  and  _475
REMARK  212  A    between atoms: _475  and  _476
REMARK  213  A    between atoms: _476  and  _477
REMARK  214  A    between atoms: _482  and  _483
REMARK  215  A    between atoms: _488  and  _490
REMARK  216  A    between atoms: _490  and  _491
REMARK  217  A    between atoms: _490  and  _493
REMARK  218  A    between atoms: _493  and  _494
REMARK  219  A    between atoms: _494  and  _495
REMARK  220  A    between atoms: _498  and  _500
REMARK  221  A    between atoms: _500  and  _501
REMARK  222  A    between atoms: _500  and  _503
REMARK  223  A    between atoms: _503  and  _504
REMARK  224  A    between atoms: _509  and  _511
REMARK  225  A    between atoms: _511  and  _512
REMARK  226  A    between atoms: _511  and  _514
REMARK  227  A    between atoms: _514  and  _515
REMARK  228  A    between atoms: _518  and  _520
REMARK  229  A    between atoms: _520  and  _521
REMARK  230  A    between atoms: _520  and  _523
REMARK  231  A    between atoms: _523  and  _524
REMARK  232  A    between atoms: _524  and  _525
REMARK  233  A    between atoms: _527  and  _529
REMARK  234  A    between atoms: _529  and  _530
REMARK  235  A    between atoms: _529  and  _532
REMARK  236  A    between atoms: _532  and  _533
REMARK  237  A    between atoms: _536  and  _538
REMARK  238  A    between atoms: _538  and  _539
REMARK  239  A    between atoms: _538  and  _541
REMARK  240  A    between atoms: _541  and  _542
REMARK  241  A    between atoms: _542  and  _543
REMARK  242  A    between atoms: _543  and  _544
REMARK  243  A    between atoms: _544  and  _545
REMARK  244  A    between atoms: _549  and  _551
REMARK  245  A    between atoms: _551  and  _552
REMARK  246  A    between atoms: _551  and  _554
REMARK  247  A    between atoms: _557  and  _559
REMARK  248  A    between atoms: _559  and  _560
REMARK  249  A    between atoms: _559  and  _562
REMARK  250  A    between atoms: _562  and  _563
REMARK  251  A    between atoms: _566  and  _568
REMARK  252  A    between atoms: _568  and  _569
REMARK  253  A    between atoms: _568  and  _571
REMARK  254  A    between atoms: _571  and  _572
REMARK  255  A    between atoms: _575  and  _577
REMARK  256  A    between atoms: _577  and  _578
REMARK  257  A    between atoms: _577  and  _580
REMARK  258  A    between atoms: _580  and  _581
REMARK  259  A    between atoms: _587  and  _589
REMARK  260  A    between atoms: _589  and  _590
REMARK  261  A    between atoms: _592  and  _594
REMARK  262  A    between atoms: _594  and  _595
REMARK  263  A    between atoms: _594  and  _597
REMARK  264  A    between atoms: _597  and  _598
REMARK  265  A    between atoms: _601  and  _603
REMARK  266  A    between atoms: _603  and  _604
REMARK  267  A    between atoms: _607  and  _609
REMARK  268  A    between atoms: _609  and  _610
REMARK  269  A    between atoms: _609  and  _612
REMARK  270  A    between atoms: _614  and  _616
REMARK  271  A    between atoms: _616  and  _617
REMARK  272  A    between atoms: _619  and  _621
REMARK  273  A    between atoms: _621  and  _622
REMARK  274  A    between atoms: _621  and  _624
REMARK  275  A    between atoms: _624  and  _625
REMARK  276  A    between atoms: _631  and  _633
REMARK  277  A    between atoms: _633  and  _634
REMARK  278  A    between atoms: _633  and  _636
REMARK  279  A    between atoms: _636  and  _637
REMARK  280  A    between atoms: _642  and  _643
REMARK                            x       y       z     vdW  Elec       q    Type
REMARK                         _______ _______ _______ _____ _____    ______ ____
ROOT
ATOM      1  O   HOH     1       6.565  49.158  10.159  0.00  0.00    +0.000 OA
ENDROOT
TORSDOF 0
REMARK  Name = ../refined-set-2016/1xh9/1xh9_pocket.pdb
REMARK  280 active torsions:
REMARK  status: ('A' for Active; 'I' for Inactive)
REMARK    1  A    between atoms: _1  and  _3
REMARK    2  A    between atoms: _3  and  _4
REMARK    3  A    between atoms: _3  and  _6
REMARK    4  A    between atoms: _6  and  _7
REMARK    5  A    between atoms: _10  and  _12
REMARK    6  A    between atoms: _12  and  _13
REMARK    7  A    between atoms: _12  and  _15
REMARK    8  A    between atoms: _15  and  _16
REMARK    9  A    between atoms: _19  and  _21
REMARK   10  A    between atoms: _21  and  _22
REMARK   11  A    between atoms: _24  and  _26
REMARK   12  A    between atoms: _26  and  _27
REMARK   13  A    between atoms: _26  and  _29
REMARK   14  A    between atoms: _29  and  _30
REMARK   15  A    between atoms: _33  and  _35
REMARK   16  A    between atoms: _35  and  _36
REMARK   17  A    between atoms: _38  and  _40
REMARK   18  A    between atoms: _40  and  _41
REMARK   19  A    between atoms: _40  and  _43
REMARK   20  A    between atoms: _43  and  _44
REMARK   21  A    between atoms: _46  and  _48
REMARK   22  A    between atoms: _48  and  _49
REMARK   23  A    between atoms: _48  and  _51
REMARK   24  A    between atoms: _51  and  _52
REMARK   25  A    between atoms: _58  and  _60
REMARK   26  A    between atoms: _60  and  _61
REMARK   27  A    between atoms: _63  and  _65
REMARK   28  A    between atoms: _65  and  _66
REMARK   29  A    between atoms: _65  and  _68
REMARK   30  A    between atoms: _68  and  _69
REMARK   31  A    between atoms: _69  and  _70
REMARK   32  A    between atoms: _70  and  _71
REMARK   33  A    between atoms: _80  and  _82
REMARK   34  A    between atoms: _82  and  _83
REMARK   35  A    between atoms: _82  and  _85
REMARK   36  A    between atoms: _88  and  _90
REMARK   37  A    between atoms: _90  and  _91
REMARK   38  A    between atoms: _90  and  _93
REMARK   39  A    between atoms: _93  and  _94
REMARK   40  A    between atoms: _94  and  _95
REMARK   41  A    between atoms: _97  and  _99
REMARK   42  A    between atoms: _99  and  _100
REMARK   43  A    between atoms: _99  and  _102
REMARK   44  A    between atoms: _102  and  _103
REMARK   45  A    between atoms: _106  and  _108
REMARK   46  A    between atoms: _108  and  _109
REMARK   47  A    between atoms: _108  and  _111
REMARK   48  A    between atoms: _111  and  _112
REMARK   49  A    between atoms: _117  and  _118
REMARK   50  A    between atoms: _120  and  _122
REMARK   51  A    between atoms: _122  and  _123
REMARK   52  A    between atoms: _126  and  _128
REMARK   53  A    between atoms: _128  and  _129
REMARK   54  A    between atoms: _128  and  _131
REMARK   55  A    between atoms: _131  and  _132
REMARK   56  A    between atoms: _132  and  _133
REMARK   57  A    between atoms: _135  and  _137
REMARK   58  A    between atoms: _137  and  _138
REMARK   59  A    between atoms: _137  and  _140
REMARK   60  A    between atoms: _140  and  _141
REMARK   61  A    between atoms: _141  and  _142
REMARK   62  A    between atoms: _142  and  _143
REMARK   63  A    between atoms: _143  and  _144
REMARK   64  A    between atoms: _148  and  _150
REMARK   65  A    between atoms: _150  and  _151
REMARK   66  A    between atoms: _150  and  _153
REMARK   67  A    between atoms: _153  and  _154
REMARK   68  A    between atoms: _157  and  _159
REMARK   69  A    between atoms: _159  and  _160
REMARK   70  A    between atoms: _159  and  _162
REMARK   71  A    between atoms: _162  and  _163
REMARK   72  A    between atoms: _166  and  _168
REMARK   73  A    between atoms: _168  and  _169
REMARK   74  A    between atoms: _168  and  _171
REMARK   75  A    between atoms: _171  and  _172
REMARK   76  A    between atoms: _175  and  _177
REMARK   77  A    between atoms: _177  and  _178
REMARK   78  A    between atoms: _177  and  _180
REMARK   79  A    between atoms: _180  and  _181
REMARK   80  A    between atoms: _181  and  _182
REMARK   81  A    between atoms: _182  and  _183
REMARK   82  A    between atoms: _183  and  _184
REMARK   83  A    between atoms: _188  and  _190
REMARK   84  A    between atoms: _190  and  _191
REMARK   85  A    between atoms: _190  and  _193
REMARK   86  A    between atoms: _196  and  _198
REMARK   87  A    between atoms: _198  and  _199
REMARK   88  A    between atoms: _198  and  _201
REMARK   89  A    between atoms: _201  and  _202
REMARK   90  A    between atoms: _205  and  _207
REMARK   91  A    between atoms: _207  and  _208
REMARK   92  A    between atoms: _207  and  _210
REMARK   93  A    between atoms: _210  and  _211
REMARK   94  A    between atoms: _211  and  _212
REMARK   95  A    between atoms: _212  and  _213
REMARK   96  A    between atoms: _213  and  _214
REMARK   97  A    between atoms: _218  and  _220
REMARK   98  A    between atoms: _220  and  _221
REMARK   99  A    between atoms: _220  and  _223
REMARK  100  A    between atoms: _223  and  _224
REMARK  101  A    between atoms: _224  and  _225
REMARK  102  A    between atoms: _228  and  _230
REMARK  103  A    between atoms: _230  and  _231
REMARK  104  A    between atoms: _230  and  _233
REMARK  105  A    between atoms: _233  and  _234
REMARK  106  A    between atoms: _237  and  _239
REMARK  107  A    between atoms: _239  and  _240
REMARK  108  A    between atoms: _239  and  _242
REMARK  109  A    between atoms: _242  and  _243
REMARK  110  A    between atoms: _243  and  _244
REMARK  111  A    between atoms: _247  and  _249
REMARK  112  A    between atoms: _249  and  _250
REMARK  113  A    between atoms: _249  and  _252
REMARK  114  A    between atoms: _252  and  _253
REMARK  115  A    between atoms: _258  and  _260
REMARK  116  A    between atoms: _260  and  _261
REMARK  117  A    between atoms: _260  and  _263
REMARK  118  A    between atoms: _263  and  _264
REMARK  119  A    between atoms: _267  and  _269
REMARK  120  A    between atoms: _269  and  _270
REMARK  121  A    between atoms: _269  and  _272
REMARK  122  A    between atoms: _272  and  _273
REMARK  123  A    between atoms: _276  and  _278
REMARK  124  A    between atoms: _278  and  _279
REMARK  125  A    between atoms: _278  and  _281
REMARK  126  A    between atoms: _281  and  _282
REMARK  127  A    between atoms: _287  and  _289
REMARK  128  A    between atoms: _289  and  _290
REMARK  129  A    between atoms: _289  and  _292
REMARK  130  A    between atoms: _292  and  _293
REMARK  131  A    between atoms: _293  and  _294
REMARK  132  A    between atoms: _297  and  _299
REMARK  133  A    between atoms: _299  and  _300
REMARK  134  A    between atoms: _299  and  _302
REMARK  135  A    between atoms: _302  and  _303
REMARK  136  A    between atoms: _303  and  _304
REMARK  137  A    between atoms: _304  and  _305
REMARK  138  A    between atoms: _305  and  _306
REMARK  139  A    between atoms: _310  and  _312
REMARK  140  A    between atoms: _312  and  _313
REMARK  141  A    between atoms: _312  and  _315
REMARK  142  A    between atoms: _315  and  _316
REMARK  143  A    between atoms: _319  and  _321
REMARK  144  A    between atoms: _321  and  _322
REMARK  145  A    between atoms: _321  and  _324
REMARK  146  A    between atoms: _327  and  _329
REMARK  147  A    between atoms: _329  and  _330
REMARK  148  A    between atoms: _329  and  _332
REMARK  149  A    between atoms: _332  and  _333
REMARK  150  A    between atoms: _333  and  _334
REMARK  151  A    between atoms: _334  and  _335
REMARK  152  A    between atoms: _335  and  _336
REMARK  153  A    between atoms: _340  and  _342
REMARK  154  A    between atoms: _342  and  _343
REMARK  155  A    between atoms: _342  and  _345
REMARK  156  A    between atoms: _345  and  _346
REMARK  157  A    between atoms: _349  and  _351
REMARK  158  A    between atoms: _351  and  _352
REMARK  159  A    between atoms: _351  and  _354
REMARK  160  A    between atoms: _354  and  _355
REMARK  161  A    between atoms: _355  and  _356
REMARK  162  A    between atoms: _358  and  _360
REMARK  163  A    between atoms: _360  and  _361
REMARK  164  A    between atoms: _360  and  _363
REMARK  165  A    between atoms: _363  and  _364
REMARK  166  A    between atoms: _364  and  _365
REMARK  167  A    between atoms: _367  and  _369
REMARK  168  A    between atoms: _369  and  _370
REMARK  169  A    between atoms: _369  and  _372
REMARK  170  A    between atoms: _372  and  _373
REMARK  171  A    between atoms: _373  and  _374
REMARK  172  A    between atoms: _377  and  _379
REMARK  173  A    between atoms: _379  and  _380
REMARK  174  A    between atoms: _379  and  _382
REMARK  175  A    between atoms: _382  and  _383
REMARK  176  A    between atoms: _388  and  _389
REMARK  177  A    between atoms: _391  and  _393
REMARK  178  A    between atoms: _393  and  _394
REMARK  179  A    between atoms: _398  and  _399
REMARK  180  A    between atoms: _404  and  _406
REMARK  181  A    between atoms: _406  and  _407
REMARK  182  A    between atoms: _409  and  _411
REMARK  183  A    between atoms: _411  and  _412
REMARK  184  A    between atoms: _414  and  _416
REMARK  185  A    between atoms: _416  and  _417
REMARK  186  A    between atoms: _416  and  _419
REMARK  187  A    between atoms: _419  and  _420
REMARK  188  A    between atoms: _420  and  _421
REMARK  189  A    between atoms: _424  and  _426
REMARK  190  A    between atoms: _426  and  _427
REMARK  191  A    between atoms: _426  and  _429
REMARK  192  A    between atoms: _429  and  _430
REMARK  193  A    between atoms: _430  and  _431
REMARK  194  A    between atoms: _433  and  _435
REMARK  195  A    between atoms: _435  and  _436
REMARK  196  A    between atoms: _435  and  _438
REMARK  197  A    between atoms: _438  and  _439
REMARK  198  A    between atoms: _445  and  _447
REMARK  199  A    between atoms: _447  and  _448
REMARK  200  A    between atoms: _447  and  _450
REMARK  201  A    between atoms: _450  and  _451
REMARK  202  A    between atoms: _456  and  _457
REMARK  203  A    between atoms: _459  and  _461
REMARK  204  A    between atoms: _461  and  _462
REMARK  205  A    between atoms: _461  and  _464
REMARK  206  A    between atoms: _464  and  _465
REMARK  207  A    between atoms: _468  and  _470
REMARK  208  A    between atoms: _470  and  _471
REMARK  209  A    between atoms: _470  and  _473
REMARK  210  A    between atoms: _473  and  _474
REMARK  211  A    between atoms: _474  and  _475
REMARK  212  A    between atoms: _475  and  _476
REMARK  213  A    between atoms: _476  and  _477
REMARK  214  A    between atoms: _482  and  _483
REMARK  215  A    between atoms: _488  and  _490
REMARK  216  A    between atoms: _490  and  _491
REMARK  217  A    between atoms: _490  and  _493
REMARK  218  A    between atoms: _493  and  _494
REMARK  219  A    between atoms: _494  and  _495
REMARK  220  A    between atoms: _498  and  _500
REMARK  221  A    between atoms: _500  and  _501
REMARK  222  A    between atoms: _500  and  _503
REMARK  223  A    between atoms: _503  and  _504
REMARK  224  A    between atoms: _509  and  _511
REMARK  225  A    between atoms: _511  and  _512
REMARK  226  A    between atoms: _511  and  _514
REMARK  227  A    between atoms: _514  and  _515
REMARK  228  A    between atoms: _518  and  _520
REMARK  229  A    between atoms: _520  and  _521
REMARK  230  A    between atoms: _520  and  _523
REMARK  231  A    between atoms: _523  and  _524
REMARK  232  A    between atoms: _524  and  _525
REMARK  233  A    between atoms: _527  and  _529
REMARK  234  A    between atoms: _529  and  _530
REMARK  235  A    between atoms: _529  and  _532
REMARK  236  A    between atoms: _532  and  _533
REMARK  237  A    between atoms: _536  and  _538
REMARK  238  A    between atoms: _538  and  _539
REMARK  239  A    between atoms: _538  and  _541
REMARK  240  A    between atoms: _541  and  _542
REMARK  241  A    between atoms: _542  and  _543
REMARK  242  A    between atoms: _543  and  _544
REMARK  243  A    between atoms: _544  and  _545
REMARK  244  A    between atoms: _549  and  _551
REMARK  245  A    between atoms: _551  and  _552
REMARK  246  A    between atoms: _551  and  _554
REMARK  247  A    between atoms: _557  and  _559
REMARK  248  A    between atoms: _559  and  _560
REMARK  249  A    between atoms: _559  and  _562
REMARK  250  A    between atoms: _562  and  _563
REMARK  251  A    between atoms: _566  and  _568
REMARK  252  A    between atoms: _568  and  _569
REMARK  253  A    between atoms: _568  and  _571
REMARK  254  A    between atoms: _571  and  _572
REMARK  255  A    between atoms: _575  and  _577
REMARK  256  A    between atoms: _577  and  _578
REMARK  257  A    between atoms: _577  and  _580
REMARK  258  A    between atoms: _580  and  _581
REMARK  259  A    between atoms: _587  and  _589
REMARK  260  A    between atoms: _589  and  _590
REMARK  261  A    between atoms: _592  and  _594
REMARK  262  A    between atoms: _594  and  _595
REMARK  263  A    between atoms: _594  and  _597
REMARK  264  A    between atoms: _597  and  _598
REMARK  265  A    between atoms: _601  and  _603
REMARK  266  A    between atoms: _603  and  _604
REMARK  267  A    between atoms: _607  and  _609
REMARK  268  A    between atoms: _609  and  _610
REMARK  269  A    between atoms: _609  and  _612
REMARK  270  A    between atoms: _614  and  _616
REMARK  271  A    between atoms: _616  and  _617
REMARK  272  A    between atoms: _619  and  _621
REMARK  273  A    between atoms: _621  and  _622
REMARK  274  A    between atoms: _621  and  _624
REMARK  275  A    between atoms: _624  and  _625
REMARK  276  A    between atoms: _631  and  _633
REMARK  277  A    between atoms: _633  and  _634
REMARK  278  A    between atoms: _633  and  _636
REMARK  279  A    between atoms: _636  and  _637
REMARK  280  A    between atoms: _642  and  _643
REMARK                            x       y       z     vdW  Elec       q    Type
REMARK                         _______ _______ _______ _____ _____    ______ ____
ROOT
ATOM      1  O   HOH     1       4.637  31.667  13.946  0.00  0.00    +0.000 OA
ENDROOT
TORSDOF 0
REMARK  Name = ../refined-set-2016/1xh9/1xh9_pocket.pdb
REMARK  280 active torsions:
REMARK  status: ('A' for Active; 'I' for Inactive)
REMARK    1  A    between atoms: _1  and  _3
REMARK    2  A    between atoms: _3  and  _4
REMARK    3  A    between atoms: _3  and  _6
REMARK    4  A    between atoms: _6  and  _7
REMARK    5  A    between atoms: _10  and  _12
REMARK    6  A    between atoms: _12  and  _13
REMARK    7  A    between atoms: _12  and  _15
REMARK    8  A    between atoms: _15  and  _16
REMARK    9  A    between atoms: _19  and  _21
REMARK   10  A    between atoms: _21  and  _22
REMARK   11  A    between atoms: _24  and  _26
REMARK   12  A    between atoms: _26  and  _27
REMARK   13  A    between atoms: _26  and  _29
REMARK   14  A    between atoms: _29  and  _30
REMARK   15  A    between atoms: _33  and  _35
REMARK   16  A    between atoms: _35  and  _36
REMARK   17  A    between atoms: _38  and  _40
REMARK   18  A    between atoms: _40  and  _41
REMARK   19  A    between atoms: _40  and  _43
REMARK   20  A    between atoms: _43  and  _44
REMARK   21  A    between atoms: _46  and  _48
REMARK   22  A    between atoms: _48  and  _49
REMARK   23  A    between atoms: _48  and  _51
REMARK   24  A    between atoms: _51  and  _52
REMARK   25  A    between atoms: _58  and  _60
REMARK   26  A    between atoms: _60  and  _61
REMARK   27  A    between atoms: _63  and  _65
REMARK   28  A    between atoms: _65  and  _66
REMARK   29  A    between atoms: _65  and  _68
REMARK   30  A    between atoms: _68  and  _69
REMARK   31  A    between atoms: _69  and  _70
REMARK   32  A    between atoms: _70  and  _71
REMARK   33  A    between atoms: _80  and  _82
REMARK   34  A    between atoms: _82  and  _83
REMARK   35  A    between atoms: _82  and  _85
REMARK   36  A    between atoms: _88  and  _90
REMARK   37  A    between atoms: _90  and  _91
REMARK   38  A    between atoms: _90  and  _93
REMARK   39  A    between atoms: _93  and  _94
REMARK   40  A    between atoms: _94  and  _95
REMARK   41  A    between atoms: _97  and  _99
REMARK   42  A    between atoms: _99  and  _100
REMARK   43  A    between atoms: _99  and  _102
REMARK   44  A    between atoms: _102  and  _103
REMARK   45  A    between atoms: _106  and  _108
REMARK   46  A    between atoms: _108  and  _109
REMARK   47  A    between atoms: _108  and  _111
REMARK   48  A    between atoms: _111  and  _112
REMARK   49  A    between atoms: _117  and  _118
REMARK   50  A    between atoms: _120  and  _122
REMARK   51  A    between atoms: _122  and  _123
REMARK   52  A    between atoms: _126  and  _128
REMARK   53  A    between atoms: _128  and  _129
REMARK   54  A    between atoms: _128  and  _131
REMARK   55  A    between atoms: _131  and  _132
REMARK   56  A    between atoms: _132  and  _133
REMARK   57  A    between atoms: _135  and  _137
REMARK   58  A    between atoms: _137  and  _138
REMARK   59  A    between atoms: _137  and  _140
REMARK   60  A    between atoms: _140  and  _141
REMARK   61  A    between atoms: _141  and  _142
REMARK   62  A    between atoms: _142  and  _143
REMARK   63  A    between atoms: _143  and  _144
REMARK   64  A    between atoms: _148  and  _150
REMARK   65  A    between atoms: _150  and  _151
REMARK   66  A    between atoms: _150  and  _153
REMARK   67  A    between atoms: _153  and  _154
REMARK   68  A    between atoms: _157  and  _159
REMARK   69  A    between atoms: _159  and  _160
REMARK   70  A    between atoms: _159  and  _162
REMARK   71  A    between atoms: _162  and  _163
REMARK   72  A    between atoms: _166  and  _168
REMARK   73  A    between atoms: _168  and  _169
REMARK   74  A    between atoms: _168  and  _171
REMARK   75  A    between atoms: _171  and  _172
REMARK   76  A    between atoms: _175  and  _177
REMARK   77  A    between atoms: _177  and  _178
REMARK   78  A    between atoms: _177  and  _180
REMARK   79  A    between atoms: _180  and  _181
REMARK   80  A    between atoms: _181  and  _182
REMARK   81  A    between atoms: _182  and  _183
REMARK   82  A    between atoms: _183  and  _184
REMARK   83  A    between atoms: _188  and  _190
REMARK   84  A    between atoms: _190  and  _191
REMARK   85  A    between atoms: _190  and  _193
REMARK   86  A    between atoms: _196  and  _198
REMARK   87  A    between atoms: _198  and  _199
REMARK   88  A    between atoms: _198  and  _201
REMARK   89  A    between atoms: _201  and  _202
REMARK   90  A    between atoms: _205  and  _207
REMARK   91  A    between atoms: _207  and  _208
REMARK   92  A    between atoms: _207  and  _210
REMARK   93  A    between atoms: _210  and  _211
REMARK   94  A    between atoms: _211  and  _212
REMARK   95  A    between atoms: _212  and  _213
REMARK   96  A    between atoms: _213  and  _214
REMARK   97  A    between atoms: _218  and  _220
REMARK   98  A    between atoms: _220  and  _221
REMARK   99  A    between atoms: _220  and  _223
REMARK  100  A    between atoms: _223  and  _224
REMARK  101  A    between atoms: _224  and  _225
REMARK  102  A    between atoms: _228  and  _230
REMARK  103  A    between atoms: _230  and  _231
REMARK  104  A    between atoms: _230  and  _233
REMARK  105  A    between atoms: _233  and  _234
REMARK  106  A    between atoms: _237  and  _239
REMARK  107  A    between atoms: _239  and  _240
REMARK  108  A    between atoms: _239  and  _242
REMARK  109  A    between atoms: _242  and  _243
REMARK  110  A    between atoms: _243  and  _244
REMARK  111  A    between atoms: _247  and  _249
REMARK  112  A    between atoms: _249  and  _250
REMARK  113  A    between atoms: _249  and  _252
REMARK  114  A    between atoms: _252  and  _253
REMARK  115  A    between atoms: _258  and  _260
REMARK  116  A    between atoms: _260  and  _261
REMARK  117  A    between atoms: _260  and  _263
REMARK  118  A    between atoms: _263  and  _264
REMARK  119  A    between atoms: _267  and  _269
REMARK  120  A    between atoms: _269  and  _270
REMARK  121  A    between atoms: _269  and  _272
REMARK  122  A    between atoms: _272  and  _273
REMARK  123  A    between atoms: _276  and  _278
REMARK  124  A    between atoms: _278  and  _279
REMARK  125  A    between atoms: _278  and  _281
REMARK  126  A    between atoms: _281  and  _282
REMARK  127  A    between atoms: _287  and  _289
REMARK  128  A    between atoms: _289  and  _290
REMARK  129  A    between atoms: _289  and  _292
REMARK  130  A    between atoms: _292  and  _293
REMARK  131  A    between atoms: _293  and  _294
REMARK  132  A    between atoms: _297  and  _299
REMARK  133  A    between atoms: _299  and  _300
REMARK  134  A    between atoms: _299  and  _302
REMARK  135  A    between atoms: _302  and  _303
REMARK  136  A    between atoms: _303  and  _304
REMARK  137  A    between atoms: _304  and  _305
REMARK  138  A    between atoms: _305  and  _306
REMARK  139  A    between atoms: _310  and  _312
REMARK  140  A    between atoms: _312  and  _313
REMARK  141  A    between atoms: _312  and  _315
REMARK  142  A    between atoms: _315  and  _316
REMARK  143  A    between atoms: _319  and  _321
REMARK  144  A    between atoms: _321  and  _322
REMARK  145  A    between atoms: _321  and  _324
REMARK  146  A    between atoms: _327  and  _329
REMARK  147  A    between atoms: _329  and  _330
REMARK  148  A    between atoms: _329  and  _332
REMARK  149  A    between atoms: _332  and  _333
REMARK  150  A    between atoms: _333  and  _334
REMARK  151  A    between atoms: _334  and  _335
REMARK  152  A    between atoms: _335  and  _336
REMARK  153  A    between atoms: _340  and  _342
REMARK  154  A    between atoms: _342  and  _343
REMARK  155  A    between atoms: _342  and  _345
REMARK  156  A    between atoms: _345  and  _346
REMARK  157  A    between atoms: _349  and  _351
REMARK  158  A    between atoms: _351  and  _352
REMARK  159  A    between atoms: _351  and  _354
REMARK  160  A    between atoms: _354  and  _355
REMARK  161  A    between atoms: _355  and  _356
REMARK  162  A    between atoms: _358  and  _360
REMARK  163  A    between atoms: _360  and  _361
REMARK  164  A    between atoms: _360  and  _363
REMARK  165  A    between atoms: _363  and  _364
REMARK  166  A    between atoms: _364  and  _365
REMARK  167  A    between atoms: _367  and  _369
REMARK  168  A    between atoms: _369  and  _370
REMARK  169  A    between atoms: _369  and  _372
REMARK  170  A    between atoms: _372  and  _373
REMARK  171  A    between atoms: _373  and  _374
REMARK  172  A    between atoms: _377  and  _379
REMARK  173  A    between atoms: _379  and  _380
REMARK  174  A    between atoms: _379  and  _382
REMARK  175  A    between atoms: _382  and  _383
REMARK  176  A    between atoms: _388  and  _389
REMARK  177  A    between atoms: _391  and  _393
REMARK  178  A    between atoms: _393  and  _394
REMARK  179  A    between atoms: _398  and  _399
REMARK  180  A    between atoms: _404  and  _406
REMARK  181  A    between atoms: _406  and  _407
REMARK  182  A    between atoms: _409  and  _411
REMARK  183  A    between atoms: _411  and  _412
REMARK  184  A    between atoms: _414  and  _416
REMARK  185  A    between atoms: _416  and  _417
REMARK  186  A    between atoms: _416  and  _419
REMARK  187  A    between atoms: _419  and  _420
REMARK  188  A    between atoms: _420  and  _421
REMARK  189  A    between atoms: _424  and  _426
REMARK  190  A    between atoms: _426  and  _427
REMARK  191  A    between atoms: _426  and  _429
REMARK  192  A    between atoms: _429  and  _430
REMARK  193  A    between atoms: _430  and  _431
REMARK  194  A    between atoms: _433  and  _435
REMARK  195  A    between atoms: _435  and  _436
REMARK  196  A    between atoms: _435  and  _438
REMARK  197  A    between atoms: _438  and  _439
REMARK  198  A    between atoms: _445  and  _447
REMARK  199  A    between atoms: _447  and  _448
REMARK  200  A    between atoms: _447  and  _450
REMARK  201  A    between atoms: _450  and  _451
REMARK  202  A    between atoms: _456  and  _457
REMARK  203  A    between atoms: _459  and  _461
REMARK  204  A    between atoms: _461  and  _462
REMARK  205  A    between atoms: _461  and  _464
REMARK  206  A    between atoms: _464  and  _465
REMARK  207  A    between atoms: _468  and  _470
REMARK  208  A    between atoms: _470  and  _471
REMARK  209  A    between atoms: _470  and  _473
REMARK  210  A    between atoms: _473  and  _474
REMARK  211  A    between atoms: _474  and  _475
REMARK  212  A    between atoms: _475  and  _476
REMARK  213  A    between atoms: _476  and  _477
REMARK  214  A    between atoms: _482  and  _483
REMARK  215  A    between atoms: _488  and  _490
REMARK  216  A    between atoms: _490  and  _491
REMARK  217  A    between atoms: _490  and  _493
REMARK  218  A    between atoms: _493  and  _494
REMARK  219  A    between atoms: _494  and  _495
REMARK  220  A    between atoms: _498  and  _500
REMARK  221  A    between atoms: _500  and  _501
REMARK  222  A    between atoms: _500  and  _503
REMARK  223  A    between atoms: _503  and  _504
REMARK  224  A    between atoms: _509  and  _511
REMARK  225  A    between atoms: _511  and  _512
REMARK  226  A    between atoms: _511  and  _514
REMARK  227  A    between atoms: _514  and  _515
REMARK  228  A    between atoms: _518  and  _520
REMARK  229  A    between atoms: _520  and  _521
REMARK  230  A    between atoms: _520  and  _523
REMARK  231  A    between atoms: _523  and  _524
REMARK  232  A    between atoms: _524  and  _525
REMARK  233  A    between atoms: _527  and  _529
REMARK  234  A    between atoms: _529  and  _530
REMARK  235  A    between atoms: _529  and  _532
REMARK  236  A    between atoms: _532  and  _533
REMARK  237  A    between atoms: _536  and  _538
REMARK  238  A    between atoms: _538  and  _539
REMARK  239  A    between atoms: _538  and  _541
REMARK  240  A    between atoms: _541  and  _542
REMARK  241  A    between atoms: _542  and  _543
REMARK  242  A    between atoms: _543  and  _544
REMARK  243  A    between atoms: _544  and  _545
REMARK  244  A    between atoms: _549  and  _551
REMARK  245  A    between atoms: _551  and  _552
REMARK  246  A    between atoms: _551  and  _554
REMARK  247  A    between atoms: _557  and  _559
REMARK  248  A    between atoms: _559  and  _560
REMARK  249  A    between atoms: _559  and  _562
REMARK  250  A    between atoms: _562  and  _563
REMARK  251  A    between atoms: _566  and  _568
REMARK  252  A    between atoms: _568  and  _569
REMARK  253  A    between atoms: _568  and  _571
REMARK  254  A    between atoms: _571  and  _572
REMARK  255  A    between atoms: _575  and  _577
REMARK  256  A    between atoms: _577  and  _578
REMARK  257  A    between atoms: _577  and  _580
REMARK  258  A    between atoms: _580  and  _581
REMARK  259  A    between atoms: _587  and  _589
REMARK  260  A    between atoms: _589  and  _590
REMARK  261  A    between atoms: _592  and  _594
REMARK  262  A    between atoms: _594  and  _595
REMARK  263  A    between atoms: _594  and  _597
REMARK  264  A    between atoms: _597  and  _598
REMARK  265  A    between atoms: _601  and  _603
REMARK  266  A    between atoms: _603  and  _604
REMARK  267  A    between atoms: _607  and  _609
REMARK  268  A    between atoms: _609  and  _610
REMARK  269  A    between atoms: _609  and  _612
REMARK  270  A    between atoms: _614  and  _616
REMARK  271  A    between atoms: _616  and  _617
REMARK  272  A    between atoms: _619  and  _621
REMARK  273  A    between atoms: _621  and  _622
REMARK  274  A    between atoms: _621  and  _624
REMARK  275  A    between atoms: _624  and  _625
REMARK  276  A    between atoms: _631  and  _633
REMARK  277  A    between atoms: _633  and  _634
REMARK  278  A    between atoms: _633  and  _636
REMARK  279  A    between atoms: _636  and  _637
REMARK  280  A    between atoms: _642  and  _643
REMARK                            x       y       z     vdW  Elec       q    Type
REMARK                         _______ _______ _______ _____ _____    ______ ____
ROOT
ATOM      1  O   HOH     1      11.240  25.321  21.216  0.00  0.00    +0.000 OA
ENDROOT
TORSDOF 0
REMARK  Name = ../refined-set-2016/1xh9/1xh9_pocket.pdb
REMARK  280 active torsions:
REMARK  status: ('A' for Active; 'I' for Inactive)
REMARK    1  A    between atoms: _1  and  _3
REMARK    2  A    between atoms: _3  and  _4
REMARK    3  A    between atoms: _3  and  _6
REMARK    4  A    between atoms: _6  and  _7
REMARK    5  A    between atoms: _10  and  _12
REMARK    6  A    between atoms: _12  and  _13
REMARK    7  A    between atoms: _12  and  _15
REMARK    8  A    between atoms: _15  and  _16
REMARK    9  A    between atoms: _19  and  _21
REMARK   10  A    between atoms: _21  and  _22
REMARK   11  A    between atoms: _24  and  _26
REMARK   12  A    between atoms: _26  and  _27
REMARK   13  A    between atoms: _26  and  _29
REMARK   14  A    between atoms: _29  and  _30
REMARK   15  A    between atoms: _33  and  _35
REMARK   16  A    between atoms: _35  and  _36
REMARK   17  A    between atoms: _38  and  _40
REMARK   18  A    between atoms: _40  and  _41
REMARK   19  A    between atoms: _40  and  _43
REMARK   20  A    between atoms: _43  and  _44
REMARK   21  A    between atoms: _46  and  _48
REMARK   22  A    between atoms: _48  and  _49
REMARK   23  A    between atoms: _48  and  _51
REMARK   24  A    between atoms: _51  and  _52
REMARK   25  A    between atoms: _58  and  _60
REMARK   26  A    between atoms: _60  and  _61
REMARK   27  A    between atoms: _63  and  _65
REMARK   28  A    between atoms: _65  and  _66
REMARK   29  A    between atoms: _65  and  _68
REMARK   30  A    between atoms: _68  and  _69
REMARK   31  A    between atoms: _69  and  _70
REMARK   32  A    between atoms: _70  and  _71
REMARK   33  A    between atoms: _80  and  _82
REMARK   34  A    between atoms: _82  and  _83
REMARK   35  A    between atoms: _82  and  _85
REMARK   36  A    between atoms: _88  and  _90
REMARK   37  A    between atoms: _90  and  _91
REMARK   38  A    between atoms: _90  and  _93
REMARK   39  A    between atoms: _93  and  _94
REMARK   40  A    between atoms: _94  and  _95
REMARK   41  A    between atoms: _97  and  _99
REMARK   42  A    between atoms: _99  and  _100
REMARK   43  A    between atoms: _99  and  _102
REMARK   44  A    between atoms: _102  and  _103
REMARK   45  A    between atoms: _106  and  _108
REMARK   46  A    between atoms: _108  and  _109
REMARK   47  A    between atoms: _108  and  _111
REMARK   48  A    between atoms: _111  and  _112
REMARK   49  A    between atoms: _117  and  _118
REMARK   50  A    between atoms: _120  and  _122
REMARK   51  A    between atoms: _122  and  _123
REMARK   52  A    between atoms: _126  and  _128
REMARK   53  A    between atoms: _128  and  _129
REMARK   54  A    between atoms: _128  and  _131
REMARK   55  A    between atoms: _131  and  _132
REMARK   56  A    between atoms: _132  and  _133
REMARK   57  A    between atoms: _135  and  _137
REMARK   58  A    between atoms: _137  and  _138
REMARK   59  A    between atoms: _137  and  _140
REMARK   60  A    between atoms: _140  and  _141
REMARK   61  A    between atoms: _141  and  _142
REMARK   62  A    between atoms: _142  and  _143
REMARK   63  A    between atoms: _143  and  _144
REMARK   64  A    between atoms: _148  and  _150
REMARK   65  A    between atoms: _150  and  _151
REMARK   66  A    between atoms: _150  and  _153
REMARK   67  A    between atoms: _153  and  _154
REMARK   68  A    between atoms: _157  and  _159
REMARK   69  A    between atoms: _159  and  _160
REMARK   70  A    between atoms: _159  and  _162
REMARK   71  A    between atoms: _162  and  _163
REMARK   72  A    between atoms: _166  and  _168
REMARK   73  A    between atoms: _168  and  _169
REMARK   74  A    between atoms: _168  and  _171
REMARK   75  A    between atoms: _171  and  _172
REMARK   76  A    between atoms: _175  and  _177
REMARK   77  A    between atoms: _177  and  _178
REMARK   78  A    between atoms: _177  and  _180
REMARK   79  A    between atoms: _180  and  _181
REMARK   80  A    between atoms: _181  and  _182
REMARK   81  A    between atoms: _182  and  _183
REMARK   82  A    between atoms: _183  and  _184
REMARK   83  A    between atoms: _188  and  _190
REMARK   84  A    between atoms: _190  and  _191
REMARK   85  A    between atoms: _190  and  _193
REMARK   86  A    between atoms: _196  and  _198
REMARK   87  A    between atoms: _198  and  _199
REMARK   88  A    between atoms: _198  and  _201
REMARK   89  A    between atoms: _201  and  _202
REMARK   90  A    between atoms: _205  and  _207
REMARK   91  A    between atoms: _207  and  _208
REMARK   92  A    between atoms: _207  and  _210
REMARK   93  A    between atoms: _210  and  _211
REMARK   94  A    between atoms: _211  and  _212
REMARK   95  A    between atoms: _212  and  _213
REMARK   96  A    between atoms: _213  and  _214
REMARK   97  A    between atoms: _218  and  _220
REMARK   98  A    between atoms: _220  and  _221
REMARK   99  A    between atoms: _220  and  _223
REMARK  100  A    between atoms: _223  and  _224
REMARK  101  A    between atoms: _224  and  _225
REMARK  102  A    between atoms: _228  and  _230
REMARK  103  A    between atoms: _230  and  _231
REMARK  104  A    between atoms: _230  and  _233
REMARK  105  A    between atoms: _233  and  _234
REMARK  106  A    between atoms: _237  and  _239
REMARK  107  A    between atoms: _239  and  _240
REMARK  108  A    between atoms: _239  and  _242
REMARK  109  A    between atoms: _242  and  _243
REMARK  110  A    between atoms: _243  and  _244
REMARK  111  A    between atoms: _247  and  _249
REMARK  112  A    between atoms: _249  and  _250
REMARK  113  A    between atoms: _249  and  _252
REMARK  114  A    between atoms: _252  and  _253
REMARK  115  A    between atoms: _258  and  _260
REMARK  116  A    between atoms: _260  and  _261
REMARK  117  A    between atoms: _260  and  _263
REMARK  118  A    between atoms: _263  and  _264
REMARK  119  A    between atoms: _267  and  _269
REMARK  120  A    between atoms: _269  and  _270
REMARK  121  A    between atoms: _269  and  _272
REMARK  122  A    between atoms: _272  and  _273
REMARK  123  A    between atoms: _276  and  _278
REMARK  124  A    between atoms: _278  and  _279
REMARK  125  A    between atoms: _278  and  _281
REMARK  126  A    between atoms: _281  and  _282
REMARK  127  A    between atoms: _287  and  _289
REMARK  128  A    between atoms: _289  and  _290
REMARK  129  A    between atoms: _289  and  _292
REMARK  130  A    between atoms: _292  and  _293
REMARK  131  A    between atoms: _293  and  _294
REMARK  132  A    between atoms: _297  and  _299
REMARK  133  A    between atoms: _299  and  _300
REMARK  134  A    between atoms: _299  and  _302
REMARK  135  A    between atoms: _302  and  _303
REMARK  136  A    between atoms: _303  and  _304
REMARK  137  A    between atoms: _304  and  _305
REMARK  138  A    between atoms: _305  and  _306
REMARK  139  A    between atoms: _310  and  _312
REMARK  140  A    between atoms: _312  and  _313
REMARK  141  A    between atoms: _312  and  _315
REMARK  142  A    between atoms: _315  and  _316
REMARK  143  A    between atoms: _319  and  _321
REMARK  144  A    between atoms: _321  and  _322
REMARK  145  A    between atoms: _321  and  _324
REMARK  146  A    between atoms: _327  and  _329
REMARK  147  A    between atoms: _329  and  _330
REMARK  148  A    between atoms: _329  and  _332
REMARK  149  A    between atoms: _332  and  _333
REMARK  150  A    between atoms: _333  and  _334
REMARK  151  A    between atoms: _334  and  _335
REMARK  152  A    between atoms: _335  and  _336
REMARK  153  A    between atoms: _340  and  _342
REMARK  154  A    between atoms: _342  and  _343
REMARK  155  A    between atoms: _342  and  _345
REMARK  156  A    between atoms: _345  and  _346
REMARK  157  A    between atoms: _349  and  _351
REMARK  158  A    between atoms: _351  and  _352
REMARK  159  A    between atoms: _351  and  _354
REMARK  160  A    between atoms: _354  and  _355
REMARK  161  A    between atoms: _355  and  _356
REMARK  162  A    between atoms: _358  and  _360
REMARK  163  A    between atoms: _360  and  _361
REMARK  164  A    between atoms: _360  and  _363
REMARK  165  A    between atoms: _363  and  _364
REMARK  166  A    between atoms: _364  and  _365
REMARK  167  A    between atoms: _367  and  _369
REMARK  168  A    between atoms: _369  and  _370
REMARK  169  A    between atoms: _369  and  _372
REMARK  170  A    between atoms: _372  and  _373
REMARK  171  A    between atoms: _373  and  _374
REMARK  172  A    between atoms: _377  and  _379
REMARK  173  A    between atoms: _379  and  _380
REMARK  174  A    between atoms: _379  and  _382
REMARK  175  A    between atoms: _382  and  _383
REMARK  176  A    between atoms: _388  and  _389
REMARK  177  A    between atoms: _391  and  _393
REMARK  178  A    between atoms: _393  and  _394
REMARK  179  A    between atoms: _398  and  _399
REMARK  180  A    between atoms: _404  and  _406
REMARK  181  A    between atoms: _406  and  _407
REMARK  182  A    between atoms: _409  and  _411
REMARK  183  A    between atoms: _411  and  _412
REMARK  184  A    between atoms: _414  and  _416
REMARK  185  A    between atoms: _416  and  _417
REMARK  186  A    between atoms: _416  and  _419
REMARK  187  A    between atoms: _419  and  _420
REMARK  188  A    between atoms: _420  and  _421
REMARK  189  A    between atoms: _424  and  _426
REMARK  190  A    between atoms: _426  and  _427
REMARK  191  A    between atoms: _426  and  _429
REMARK  192  A    between atoms: _429  and  _430
REMARK  193  A    between atoms: _430  and  _431
REMARK  194  A    between atoms: _433  and  _435
REMARK  195  A    between atoms: _435  and  _436
REMARK  196  A    between atoms: _435  and  _438
REMARK  197  A    between atoms: _438  and  _439
REMARK  198  A    between atoms: _445  and  _447
REMARK  199  A    between atoms: _447  and  _448
REMARK  200  A    between atoms: _447  and  _450
REMARK  201  A    between atoms: _450  and  _451
REMARK  202  A    between atoms: _456  and  _457
REMARK  203  A    between atoms: _459  and  _461
REMARK  204  A    between atoms: _461  and  _462
REMARK  205  A    between atoms: _461  and  _464
REMARK  206  A    between atoms: _464  and  _465
REMARK  207  A    between atoms: _468  and  _470
REMARK  208  A    between atoms: _470  and  _471
REMARK  209  A    between atoms: _470  and  _473
REMARK  210  A    between atoms: _473  and  _474
REMARK  211  A    between atoms: _474  and  _475
REMARK  212  A    between atoms: _475  and  _476
REMARK  213  A    between atoms: _476  and  _477
REMARK  214  A    between atoms: _482  and  _483
REMARK  215  A    between atoms: _488  and  _490
REMARK  216  A    between atoms: _490  and  _491
REMARK  217  A    between atoms: _490  and  _493
REMARK  218  A    between atoms: _493  and  _494
REMARK  219  A    between atoms: _494  and  _495
REMARK  220  A    between atoms: _498  and  _500
REMARK  221  A    between atoms: _500  and  _501
REMARK  222  A    between atoms: _500  and  _503
REMARK  223  A    between atoms: _503  and  _504
REMARK  224  A    between atoms: _509  and  _511
REMARK  225  A    between atoms: _511  and  _512
REMARK  226  A    between atoms: _511  and  _514
REMARK  227  A    between atoms: _514  and  _515
REMARK  228  A    between atoms: _518  and  _520
REMARK  229  A    between atoms: _520  and  _521
REMARK  230  A    between atoms: _520  and  _523
REMARK  231  A    between atoms: _523  and  _524
REMARK  232  A    between atoms: _524  and  _525
REMARK  233  A    between atoms: _527  and  _529
REMARK  234  A    between atoms: _529  and  _530
REMARK  235  A    between atoms: _529  and  _532
REMARK  236  A    between atoms: _532  and  _533
REMARK  237  A    between atoms: _536  and  _538
REMARK  238  A    between atoms: _538  and  _539
REMARK  239  A    between atoms: _538  and  _541
REMARK  240  A    between atoms: _541  and  _542
REMARK  241  A    between atoms: _542  and  _543
REMARK  242  A    between atoms: _543  and  _544
REMARK  243  A    between atoms: _544  and  _545
REMARK  244  A    between atoms: _549  and  _551
REMARK  245  A    between atoms: _551  and  _552
REMARK  246  A    between atoms: _551  and  _554
REMARK  247  A    between atoms: _557  and  _559
REMARK  248  A    between atoms: _559  and  _560
REMARK  249  A    between atoms: _559  and  _562
REMARK  250  A    between atoms: _562  and  _563
REMARK  251  A    between atoms: _566  and  _568
REMARK  252  A    between atoms: _568  and  _569
REMARK  253  A    between atoms: _568  and  _571
REMARK  254  A    between atoms: _571  and  _572
REMARK  255  A    between atoms: _575  and  _577
REMARK  256  A    between atoms: _577  and  _578
REMARK  257  A    between atoms: _577  and  _580
REMARK  258  A    between atoms: _580  and  _581
REMARK  259  A    between atoms: _587  and  _589
REMARK  260  A    between atoms: _589  and  _590
REMARK  261  A    between atoms: _592  and  _594
REMARK  262  A    between atoms: _594  and  _595
REMARK  263  A    between atoms: _594  and  _597
REMARK  264  A    between atoms: _597  and  _598
REMARK  265  A    between atoms: _601  and  _603
REMARK  266  A    between atoms: _603  and  _604
REMARK  267  A    between atoms: _607  and  _609
REMARK  268  A    between atoms: _609  and  _610
REMARK  269  A    between atoms: _609  and  _612
REMARK  270  A    between atoms: _614  and  _616
REMARK  271  A    between atoms: _616  and  _617
REMARK  272  A    between atoms: _619  and  _621
REMARK  273  A    between atoms: _621  and  _622
REMARK  274  A    between atoms: _621  and  _624
REMARK  275  A    between atoms: _624  and  _625
REMARK  276  A    between atoms: _631  and  _633
REMARK  277  A    between atoms: _633  and  _634
REMARK  278  A    between atoms: _633  and  _636
REMARK  279  A    between atoms: _636  and  _637
REMARK  280  A    between atoms: _642  and  _643
REMARK                            x       y       z     vdW  Elec       q    Type
REMARK                         _______ _______ _______ _____ _____    ______ ____
ROOT
ATOM      1  O   HOH     1       9.652  44.569  10.670  0.00  0.00    +0.000 OA
ENDROOT
TORSDOF 0
REMARK  Name = ../refined-set-2016/1xh9/1xh9_pocket.pdb
REMARK  280 active torsions:
REMARK  status: ('A' for Active; 'I' for Inactive)
REMARK    1  A    between atoms: _1  and  _3
REMARK    2  A    between atoms: _3  and  _4
REMARK    3  A    between atoms: _3  and  _6
REMARK    4  A    between atoms: _6  and  _7
REMARK    5  A    between atoms: _10  and  _12
REMARK    6  A    between atoms: _12  and  _13
REMARK    7  A    between atoms: _12  and  _15
REMARK    8  A    between atoms: _15  and  _16
REMARK    9  A    between atoms: _19  and  _21
REMARK   10  A    between atoms: _21  and  _22
REMARK   11  A    between atoms: _24  and  _26
REMARK   12  A    between atoms: _26  and  _27
REMARK   13  A    between atoms: _26  and  _29
REMARK   14  A    between atoms: _29  and  _30
REMARK   15  A    between atoms: _33  and  _35
REMARK   16  A    between atoms: _35  and  _36
REMARK   17  A    between atoms: _38  and  _40
REMARK   18  A    between atoms: _40  and  _41
REMARK   19  A    between atoms: _40  and  _43
REMARK   20  A    between atoms: _43  and  _44
REMARK   21  A    between atoms: _46  and  _48
REMARK   22  A    between atoms: _48  and  _49
REMARK   23  A    between atoms: _48  and  _51
REMARK   24  A    between atoms: _51  and  _52
REMARK   25  A    between atoms: _58  and  _60
REMARK   26  A    between atoms: _60  and  _61
REMARK   27  A    between atoms: _63  and  _65
REMARK   28  A    between atoms: _65  and  _66
REMARK   29  A    between atoms: _65  and  _68
REMARK   30  A    between atoms: _68  and  _69
REMARK   31  A    between atoms: _69  and  _70
REMARK   32  A    between atoms: _70  and  _71
REMARK   33  A    between atoms: _80  and  _82
REMARK   34  A    between atoms: _82  and  _83
REMARK   35  A    between atoms: _82  and  _85
REMARK   36  A    between atoms: _88  and  _90
REMARK   37  A    between atoms: _90  and  _91
REMARK   38  A    between atoms: _90  and  _93
REMARK   39  A    between atoms: _93  and  _94
REMARK   40  A    between atoms: _94  and  _95
REMARK   41  A    between atoms: _97  and  _99
REMARK   42  A    between atoms: _99  and  _100
REMARK   43  A    between atoms: _99  and  _102
REMARK   44  A    between atoms: _102  and  _103
REMARK   45  A    between atoms: _106  and  _108
REMARK   46  A    between atoms: _108  and  _109
REMARK   47  A    between atoms: _108  and  _111
REMARK   48  A    between atoms: _111  and  _112
REMARK   49  A    between atoms: _117  and  _118
REMARK   50  A    between atoms: _120  and  _122
REMARK   51  A    between atoms: _122  and  _123
REMARK   52  A    between atoms: _126  and  _128
REMARK   53  A    between atoms: _128  and  _129
REMARK   54  A    between atoms: _128  and  _131
REMARK   55  A    between atoms: _131  and  _132
REMARK   56  A    between atoms: _132  and  _133
REMARK   57  A    between atoms: _135  and  _137
REMARK   58  A    between atoms: _137  and  _138
REMARK   59  A    between atoms: _137  and  _140
REMARK   60  A    between atoms: _140  and  _141
REMARK   61  A    between atoms: _141  and  _142
REMARK   62  A    between atoms: _142  and  _143
REMARK   63  A    between atoms: _143  and  _144
REMARK   64  A    between atoms: _148  and  _150
REMARK   65  A    between atoms: _150  and  _151
REMARK   66  A    between atoms: _150  and  _153
REMARK   67  A    between atoms: _153  and  _154
REMARK   68  A    between atoms: _157  and  _159
REMARK   69  A    between atoms: _159  and  _160
REMARK   70  A    between atoms: _159  and  _162
REMARK   71  A    between atoms: _162  and  _163
REMARK   72  A    between atoms: _166  and  _168
REMARK   73  A    between atoms: _168  and  _169
REMARK   74  A    between atoms: _168  and  _171
REMARK   75  A    between atoms: _171  and  _172
REMARK   76  A    between atoms: _175  and  _177
REMARK   77  A    between atoms: _177  and  _178
REMARK   78  A    between atoms: _177  and  _180
REMARK   79  A    between atoms: _180  and  _181
REMARK   80  A    between atoms: _181  and  _182
REMARK   81  A    between atoms: _182  and  _183
REMARK   82  A    between atoms: _183  and  _184
REMARK   83  A    between atoms: _188  and  _190
REMARK   84  A    between atoms: _190  and  _191
REMARK   85  A    between atoms: _190  and  _193
REMARK   86  A    between atoms: _196  and  _198
REMARK   87  A    between atoms: _198  and  _199
REMARK   88  A    between atoms: _198  and  _201
REMARK   89  A    between atoms: _201  and  _202
REMARK   90  A    between atoms: _205  and  _207
REMARK   91  A    between atoms: _207  and  _208
REMARK   92  A    between atoms: _207  and  _210
REMARK   93  A    between atoms: _210  and  _211
REMARK   94  A    between atoms: _211  and  _212
REMARK   95  A    between atoms: _212  and  _213
REMARK   96  A    between atoms: _213  and  _214
REMARK   97  A    between atoms: _218  and  _220
REMARK   98  A    between atoms: _220  and  _221
REMARK   99  A    between atoms: _220  and  _223
REMARK  100  A    between atoms: _223  and  _224
REMARK  101  A    between atoms: _224  and  _225
REMARK  102  A    between atoms: _228  and  _230
REMARK  103  A    between atoms: _230  and  _231
REMARK  104  A    between atoms: _230  and  _233
REMARK  105  A    between atoms: _233  and  _234
REMARK  106  A    between atoms: _237  and  _239
REMARK  107  A    between atoms: _239  and  _240
REMARK  108  A    between atoms: _239  and  _242
REMARK  109  A    between atoms: _242  and  _243
REMARK  110  A    between atoms: _243  and  _244
REMARK  111  A    between atoms: _247  and  _249
REMARK  112  A    between atoms: _249  and  _250
REMARK  113  A    between atoms: _249  and  _252
REMARK  114  A    between atoms: _252  and  _253
REMARK  115  A    between atoms: _258  and  _260
REMARK  116  A    between atoms: _260  and  _261
REMARK  117  A    between atoms: _260  and  _263
REMARK  118  A    between atoms: _263  and  _264
REMARK  119  A    between atoms: _267  and  _269
REMARK  120  A    between atoms: _269  and  _270
REMARK  121  A    between atoms: _269  and  _272
REMARK  122  A    between atoms: _272  and  _273
REMARK  123  A    between atoms: _276  and  _278
REMARK  124  A    between atoms: _278  and  _279
REMARK  125  A    between atoms: _278  and  _281
REMARK  126  A    between atoms: _281  and  _282
REMARK  127  A    between atoms: _287  and  _289
REMARK  128  A    between atoms: _289  and  _290
REMARK  129  A    between atoms: _289  and  _292
REMARK  130  A    between atoms: _292  and  _293
REMARK  131  A    between atoms: _293  and  _294
REMARK  132  A    between atoms: _297  and  _299
REMARK  133  A    between atoms: _299  and  _300
REMARK  134  A    between atoms: _299  and  _302
REMARK  135  A    between atoms: _302  and  _303
REMARK  136  A    between atoms: _303  and  _304
REMARK  137  A    between atoms: _304  and  _305
REMARK  138  A    between atoms: _305  and  _306
REMARK  139  A    between atoms: _310  and  _312
REMARK  140  A    between atoms: _312  and  _313
REMARK  141  A    between atoms: _312  and  _315
REMARK  142  A    between atoms: _315  and  _316
REMARK  143  A    between atoms: _319  and  _321
REMARK  144  A    between atoms: _321  and  _322
REMARK  145  A    between atoms: _321  and  _324
REMARK  146  A    between atoms: _327  and  _329
REMARK  147  A    between atoms: _329  and  _330
REMARK  148  A    between atoms: _329  and  _332
REMARK  149  A    between atoms: _332  and  _333
REMARK  150  A    between atoms: _333  and  _334
REMARK  151  A    between atoms: _334  and  _335
REMARK  152  A    between atoms: _335  and  _336
REMARK  153  A    between atoms: _340  and  _342
REMARK  154  A    between atoms: _342  and  _343
REMARK  155  A    between atoms: _342  and  _345
REMARK  156  A    between atoms: _345  and  _346
REMARK  157  A    between atoms: _349  and  _351
REMARK  158  A    between atoms: _351  and  _352
REMARK  159  A    between atoms: _351  and  _354
REMARK  160  A    between atoms: _354  and  _355
REMARK  161  A    between atoms: _355  and  _356
REMARK  162  A    between atoms: _358  and  _360
REMARK  163  A    between atoms: _360  and  _361
REMARK  164  A    between atoms: _360  and  _363
REMARK  165  A    between atoms: _363  and  _364
REMARK  166  A    between atoms: _364  and  _365
REMARK  167  A    between atoms: _367  and  _369
REMARK  168  A    between atoms: _369  and  _370
REMARK  169  A    between atoms: _369  and  _372
REMARK  170  A    between atoms: _372  and  _373
REMARK  171  A    between atoms: _373  and  _374
REMARK  172  A    between atoms: _377  and  _379
REMARK  173  A    between atoms: _379  and  _380
REMARK  174  A    between atoms: _379  and  _382
REMARK  175  A    between atoms: _382  and  _383
REMARK  176  A    between atoms: _388  and  _389
REMARK  177  A    between atoms: _391  and  _393
REMARK  178  A    between atoms: _393  and  _394
REMARK  179  A    between atoms: _398  and  _399
REMARK  180  A    between atoms: _404  and  _406
REMARK  181  A    between atoms: _406  and  _407
REMARK  182  A    between atoms: _409  and  _411
REMARK  183  A    between atoms: _411  and  _412
REMARK  184  A    between atoms: _414  and  _416
REMARK  185  A    between atoms: _416  and  _417
REMARK  186  A    between atoms: _416  and  _419
REMARK  187  A    between atoms: _419  and  _420
REMARK  188  A    between atoms: _420  and  _421
REMARK  189  A    between atoms: _424  and  _426
REMARK  190  A    between atoms: _426  and  _427
REMARK  191  A    between atoms: _426  and  _429
REMARK  192  A    between atoms: _429  and  _430
REMARK  193  A    between atoms: _430  and  _431
REMARK  194  A    between atoms: _433  and  _435
REMARK  195  A    between atoms: _435  and  _436
REMARK  196  A    between atoms: _435  and  _438
REMARK  197  A    between atoms: _438  and  _439
REMARK  198  A    between atoms: _445  and  _447
REMARK  199  A    between atoms: _447  and  _448
REMARK  200  A    between atoms: _447  and  _450
REMARK  201  A    between atoms: _450  and  _451
REMARK  202  A    between atoms: _456  and  _457
REMARK  203  A    between atoms: _459  and  _461
REMARK  204  A    between atoms: _461  and  _462
REMARK  205  A    between atoms: _461  and  _464
REMARK  206  A    between atoms: _464  and  _465
REMARK  207  A    between atoms: _468  and  _470
REMARK  208  A    between atoms: _470  and  _471
REMARK  209  A    between atoms: _470  and  _473
REMARK  210  A    between atoms: _473  and  _474
REMARK  211  A    between atoms: _474  and  _475
REMARK  212  A    between atoms: _475  and  _476
REMARK  213  A    between atoms: _476  and  _477
REMARK  214  A    between atoms: _482  and  _483
REMARK  215  A    between atoms: _488  and  _490
REMARK  216  A    between atoms: _490  and  _491
REMARK  217  A    between atoms: _490  and  _493
REMARK  218  A    between atoms: _493  and  _494
REMARK  219  A    between atoms: _494  and  _495
REMARK  220  A    between atoms: _498  and  _500
REMARK  221  A    between atoms: _500  and  _501
REMARK  222  A    between atoms: _500  and  _503
REMARK  223  A    between atoms: _503  and  _504
REMARK  224  A    between atoms: _509  and  _511
REMARK  225  A    between atoms: _511  and  _512
REMARK  226  A    between atoms: _511  and  _514
REMARK  227  A    between atoms: _514  and  _515
REMARK  228  A    between atoms: _518  and  _520
REMARK  229  A    between atoms: _520  and  _521
REMARK  230  A    between atoms: _520  and  _523
REMARK  231  A    between atoms: _523  and  _524
REMARK  232  A    between atoms: _524  and  _525
REMARK  233  A    between atoms: _527  and  _529
REMARK  234  A    between atoms: _529  and  _530
REMARK  235  A    between atoms: _529  and  _532
REMARK  236  A    between atoms: _532  and  _533
REMARK  237  A    between atoms: _536  and  _538
REMARK  238  A    between atoms: _538  and  _539
REMARK  239  A    between atoms: _538  and  _541
REMARK  240  A    between atoms: _541  and  _542
REMARK  241  A    between atoms: _542  and  _543
REMARK  242  A    between atoms: _543  and  _544
REMARK  243  A    between atoms: _544  and  _545
REMARK  244  A    between atoms: _549  and  _551
REMARK  245  A    between atoms: _551  and  _552
REMARK  246  A    between atoms: _551  and  _554
REMARK  247  A    between atoms: _557  and  _559
REMARK  248  A    between atoms: _559  and  _560
REMARK  249  A    between atoms: _559  and  _562
REMARK  250  A    between atoms: _562  and  _563
REMARK  251  A    between atoms: _566  and  _568
REMARK  252  A    between atoms: _568  and  _569
REMARK  253  A    between atoms: _568  and  _571
REMARK  254  A    between atoms: _571  and  _572
REMARK  255  A    between atoms: _575  and  _577
REMARK  256  A    between atoms: _577  and  _578
REMARK  257  A    between atoms: _577  and  _580
REMARK  258  A    between atoms: _580  and  _581
REMARK  259  A    between atoms: _587  and  _589
REMARK  260  A    between atoms: _589  and  _590
REMARK  261  A    between atoms: _592  and  _594
REMARK  262  A    between atoms: _594  and  _595
REMARK  263  A    between atoms: _594  and  _597
REMARK  264  A    between atoms: _597  and  _598
REMARK  265  A    between atoms: _601  and  _603
REMARK  266  A    between atoms: _603  and  _604
REMARK  267  A    between atoms: _607  and  _609
REMARK  268  A    between atoms: _609  and  _610
REMARK  269  A    between atoms: _609  and  _612
REMARK  270  A    between atoms: _614  and  _616
REMARK  271  A    between atoms: _616  and  _617
REMARK  272  A    between atoms: _619  and  _621
REMARK  273  A    between atoms: _621  and  _622
REMARK  274  A    between atoms: _621  and  _624
REMARK  275  A    between atoms: _624  and  _625
REMARK  276  A    between atoms: _631  and  _633
REMARK  277  A    between atoms: _633  and  _634
REMARK  278  A    between atoms: _633  and  _636
REMARK  279  A    between atoms: _636  and  _637
REMARK  280  A    between atoms: _642  and  _643
REMARK                            x       y       z     vdW  Elec       q    Type
REMARK                         _______ _______ _______ _____ _____    ______ ____
ROOT
ATOM      1  O   HOH     1       9.866  33.652   9.790  0.00  0.00    +0.000 OA
ENDROOT
TORSDOF 0
REMARK  Name = ../refined-set-2016/1xh9/1xh9_pocket.pdb
REMARK  280 active torsions:
REMARK  status: ('A' for Active; 'I' for Inactive)
REMARK    1  A    between atoms: _1  and  _3
REMARK    2  A    between atoms: _3  and  _4
REMARK    3  A    between atoms: _3  and  _6
REMARK    4  A    between atoms: _6  and  _7
REMARK    5  A    between atoms: _10  and  _12
REMARK    6  A    between atoms: _12  and  _13
REMARK    7  A    between atoms: _12  and  _15
REMARK    8  A    between atoms: _15  and  _16
REMARK    9  A    between atoms: _19  and  _21
REMARK   10  A    between atoms: _21  and  _22
REMARK   11  A    between atoms: _24  and  _26
REMARK   12  A    between atoms: _26  and  _27
REMARK   13  A    between atoms: _26  and  _29
REMARK   14  A    between atoms: _29  and  _30
REMARK   15  A    between atoms: _33  and  _35
REMARK   16  A    between atoms: _35  and  _36
REMARK   17  A    between atoms: _38  and  _40
REMARK   18  A    between atoms: _40  and  _41
REMARK   19  A    between atoms: _40  and  _43
REMARK   20  A    between atoms: _43  and  _44
REMARK   21  A    between atoms: _46  and  _48
REMARK   22  A    between atoms: _48  and  _49
REMARK   23  A    between atoms: _48  and  _51
REMARK   24  A    between atoms: _51  and  _52
REMARK   25  A    between atoms: _58  and  _60
REMARK   26  A    between atoms: _60  and  _61
REMARK   27  A    between atoms: _63  and  _65
REMARK   28  A    between atoms: _65  and  _66
REMARK   29  A    between atoms: _65  and  _68
REMARK   30  A    between atoms: _68  and  _69
REMARK   31  A    between atoms: _69  and  _70
REMARK   32  A    between atoms: _70  and  _71
REMARK   33  A    between atoms: _80  and  _82
REMARK   34  A    between atoms: _82  and  _83
REMARK   35  A    between atoms: _82  and  _85
REMARK   36  A    between atoms: _88  and  _90
REMARK   37  A    between atoms: _90  and  _91
REMARK   38  A    between atoms: _90  and  _93
REMARK   39  A    between atoms: _93  and  _94
REMARK   40  A    between atoms: _94  and  _95
REMARK   41  A    between atoms: _97  and  _99
REMARK   42  A    between atoms: _99  and  _100
REMARK   43  A    between atoms: _99  and  _102
REMARK   44  A    between atoms: _102  and  _103
REMARK   45  A    between atoms: _106  and  _108
REMARK   46  A    between atoms: _108  and  _109
REMARK   47  A    between atoms: _108  and  _111
REMARK   48  A    between atoms: _111  and  _112
REMARK   49  A    between atoms: _117  and  _118
REMARK   50  A    between atoms: _120  and  _122
REMARK   51  A    between atoms: _122  and  _123
REMARK   52  A    between atoms: _126  and  _128
REMARK   53  A    between atoms: _128  and  _129
REMARK   54  A    between atoms: _128  and  _131
REMARK   55  A    between atoms: _131  and  _132
REMARK   56  A    between atoms: _132  and  _133
REMARK   57  A    between atoms: _135  and  _137
REMARK   58  A    between atoms: _137  and  _138
REMARK   59  A    between atoms: _137  and  _140
REMARK   60  A    between atoms: _140  and  _141
REMARK   61  A    between atoms: _141  and  _142
REMARK   62  A    between atoms: _142  and  _143
REMARK   63  A    between atoms: _143  and  _144
REMARK   64  A    between atoms: _148  and  _150
REMARK   65  A    between atoms: _150  and  _151
REMARK   66  A    between atoms: _150  and  _153
REMARK   67  A    between atoms: _153  and  _154
REMARK   68  A    between atoms: _157  and  _159
REMARK   69  A    between atoms: _159  and  _160
REMARK   70  A    between atoms: _159  and  _162
REMARK   71  A    between atoms: _162  and  _163
REMARK   72  A    between atoms: _166  and  _168
REMARK   73  A    between atoms: _168  and  _169
REMARK   74  A    between atoms: _168  and  _171
REMARK   75  A    between atoms: _171  and  _172
REMARK   76  A    between atoms: _175  and  _177
REMARK   77  A    between atoms: _177  and  _178
REMARK   78  A    between atoms: _177  and  _180
REMARK   79  A    between atoms: _180  and  _181
REMARK   80  A    between atoms: _181  and  _182
REMARK   81  A    between atoms: _182  and  _183
REMARK   82  A    between atoms: _183  and  _184
REMARK   83  A    between atoms: _188  and  _190
REMARK   84  A    between atoms: _190  and  _191
REMARK   85  A    between atoms: _190  and  _193
REMARK   86  A    between atoms: _196  and  _198
REMARK   87  A    between atoms: _198  and  _199
REMARK   88  A    between atoms: _198  and  _201
REMARK   89  A    between atoms: _201  and  _202
REMARK   90  A    between atoms: _205  and  _207
REMARK   91  A    between atoms: _207  and  _208
REMARK   92  A    between atoms: _207  and  _210
REMARK   93  A    between atoms: _210  and  _211
REMARK   94  A    between atoms: _211  and  _212
REMARK   95  A    between atoms: _212  and  _213
REMARK   96  A    between atoms: _213  and  _214
REMARK   97  A    between atoms: _218  and  _220
REMARK   98  A    between atoms: _220  and  _221
REMARK   99  A    between atoms: _220  and  _223
REMARK  100  A    between atoms: _223  and  _224
REMARK  101  A    between atoms: _224  and  _225
REMARK  102  A    between atoms: _228  and  _230
REMARK  103  A    between atoms: _230  and  _231
REMARK  104  A    between atoms: _230  and  _233
REMARK  105  A    between atoms: _233  and  _234
REMARK  106  A    between atoms: _237  and  _239
REMARK  107  A    between atoms: _239  and  _240
REMARK  108  A    between atoms: _239  and  _242
REMARK  109  A    between atoms: _242  and  _243
REMARK  110  A    between atoms: _243  and  _244
REMARK  111  A    between atoms: _247  and  _249
REMARK  112  A    between atoms: _249  and  _250
REMARK  113  A    between atoms: _249  and  _252
REMARK  114  A    between atoms: _252  and  _253
REMARK  115  A    between atoms: _258  and  _260
REMARK  116  A    between atoms: _260  and  _261
REMARK  117  A    between atoms: _260  and  _263
REMARK  118  A    between atoms: _263  and  _264
REMARK  119  A    between atoms: _267  and  _269
REMARK  120  A    between atoms: _269  and  _270
REMARK  121  A    between atoms: _269  and  _272
REMARK  122  A    between atoms: _272  and  _273
REMARK  123  A    between atoms: _276  and  _278
REMARK  124  A    between atoms: _278  and  _279
REMARK  125  A    between atoms: _278  and  _281
REMARK  126  A    between atoms: _281  and  _282
REMARK  127  A    between atoms: _287  and  _289
REMARK  128  A    between atoms: _289  and  _290
REMARK  129  A    between atoms: _289  and  _292
REMARK  130  A    between atoms: _292  and  _293
REMARK  131  A    between atoms: _293  and  _294
REMARK  132  A    between atoms: _297  and  _299
REMARK  133  A    between atoms: _299  and  _300
REMARK  134  A    between atoms: _299  and  _302
REMARK  135  A    between atoms: _302  and  _303
REMARK  136  A    between atoms: _303  and  _304
REMARK  137  A    between atoms: _304  and  _305
REMARK  138  A    between atoms: _305  and  _306
REMARK  139  A    between atoms: _310  and  _312
REMARK  140  A    between atoms: _312  and  _313
REMARK  141  A    between atoms: _312  and  _315
REMARK  142  A    between atoms: _315  and  _316
REMARK  143  A    between atoms: _319  and  _321
REMARK  144  A    between atoms: _321  and  _322
REMARK  145  A    between atoms: _321  and  _324
REMARK  146  A    between atoms: _327  and  _329
REMARK  147  A    between atoms: _329  and  _330
REMARK  148  A    between atoms: _329  and  _332
REMARK  149  A    between atoms: _332  and  _333
REMARK  150  A    between atoms: _333  and  _334
REMARK  151  A    between atoms: _334  and  _335
REMARK  152  A    between atoms: _335  and  _336
REMARK  153  A    between atoms: _340  and  _342
REMARK  154  A    between atoms: _342  and  _343
REMARK  155  A    between atoms: _342  and  _345
REMARK  156  A    between atoms: _345  and  _346
REMARK  157  A    between atoms: _349  and  _351
REMARK  158  A    between atoms: _351  and  _352
REMARK  159  A    between atoms: _351  and  _354
REMARK  160  A    between atoms: _354  and  _355
REMARK  161  A    between atoms: _355  and  _356
REMARK  162  A    between atoms: _358  and  _360
REMARK  163  A    between atoms: _360  and  _361
REMARK  164  A    between atoms: _360  and  _363
REMARK  165  A    between atoms: _363  and  _364
REMARK  166  A    between atoms: _364  and  _365
REMARK  167  A    between atoms: _367  and  _369
REMARK  168  A    between atoms: _369  and  _370
REMARK  169  A    between atoms: _369  and  _372
REMARK  170  A    between atoms: _372  and  _373
REMARK  171  A    between atoms: _373  and  _374
REMARK  172  A    between atoms: _377  and  _379
REMARK  173  A    between atoms: _379  and  _380
REMARK  174  A    between atoms: _379  and  _382
REMARK  175  A    between atoms: _382  and  _383
REMARK  176  A    between atoms: _388  and  _389
REMARK  177  A    between atoms: _391  and  _393
REMARK  178  A    between atoms: _393  and  _394
REMARK  179  A    between atoms: _398  and  _399
REMARK  180  A    between atoms: _404  and  _406
REMARK  181  A    between atoms: _406  and  _407
REMARK  182  A    between atoms: _409  and  _411
REMARK  183  A    between atoms: _411  and  _412
REMARK  184  A    between atoms: _414  and  _416
REMARK  185  A    between atoms: _416  and  _417
REMARK  186  A    between atoms: _416  and  _419
REMARK  187  A    between atoms: _419  and  _420
REMARK  188  A    between atoms: _420  and  _421
REMARK  189  A    between atoms: _424  and  _426
REMARK  190  A    between atoms: _426  and  _427
REMARK  191  A    between atoms: _426  and  _429
REMARK  192  A    between atoms: _429  and  _430
REMARK  193  A    between atoms: _430  and  _431
REMARK  194  A    between atoms: _433  and  _435
REMARK  195  A    between atoms: _435  and  _436
REMARK  196  A    between atoms: _435  and  _438
REMARK  197  A    between atoms: _438  and  _439
REMARK  198  A    between atoms: _445  and  _447
REMARK  199  A    between atoms: _447  and  _448
REMARK  200  A    between atoms: _447  and  _450
REMARK  201  A    between atoms: _450  and  _451
REMARK  202  A    between atoms: _456  and  _457
REMARK  203  A    between atoms: _459  and  _461
REMARK  204  A    between atoms: _461  and  _462
REMARK  205  A    between atoms: _461  and  _464
REMARK  206  A    between atoms: _464  and  _465
REMARK  207  A    between atoms: _468  and  _470
REMARK  208  A    between atoms: _470  and  _471
REMARK  209  A    between atoms: _470  and  _473
REMARK  210  A    between atoms: _473  and  _474
REMARK  211  A    between atoms: _474  and  _475
REMARK  212  A    between atoms: _475  and  _476
REMARK  213  A    between atoms: _476  and  _477
REMARK  214  A    between atoms: _482  and  _483
REMARK  215  A    between atoms: _488  and  _490
REMARK  216  A    between atoms: _490  and  _491
REMARK  217  A    between atoms: _490  and  _493
REMARK  218  A    between atoms: _493  and  _494
REMARK  219  A    between atoms: _494  and  _495
REMARK  220  A    between atoms: _498  and  _500
REMARK  221  A    between atoms: _500  and  _501
REMARK  222  A    between atoms: _500  and  _503
REMARK  223  A    between atoms: _503  and  _504
REMARK  224  A    between atoms: _509  and  _511
REMARK  225  A    between atoms: _511  and  _512
REMARK  226  A    between atoms: _511  and  _514
REMARK  227  A    between atoms: _514  and  _515
REMARK  228  A    between atoms: _518  and  _520
REMARK  229  A    between atoms: _520  and  _521
REMARK  230  A    between atoms: _520  and  _523
REMARK  231  A    between atoms: _523  and  _524
REMARK  232  A    between atoms: _524  and  _525
REMARK  233  A    between atoms: _527  and  _529
REMARK  234  A    between atoms: _529  and  _530
REMARK  235  A    between atoms: _529  and  _532
REMARK  236  A    between atoms: _532  and  _533
REMARK  237  A    between atoms: _536  and  _538
REMARK  238  A    between atoms: _538  and  _539
REMARK  239  A    between atoms: _538  and  _541
REMARK  240  A    between atoms: _541  and  _542
REMARK  241  A    between atoms: _542  and  _543
REMARK  242  A    between atoms: _543  and  _544
REMARK  243  A    between atoms: _544  and  _545
REMARK  244  A    between atoms: _549  and  _551
REMARK  245  A    between atoms: _551  and  _552
REMARK  246  A    between atoms: _551  and  _554
REMARK  247  A    between atoms: _557  and  _559
REMARK  248  A    between atoms: _559  and  _560
REMARK  249  A    between atoms: _559  and  _562
REMARK  250  A    between atoms: _562  and  _563
REMARK  251  A    between atoms: _566  and  _568
REMARK  252  A    between atoms: _568  and  _569
REMARK  253  A    between atoms: _568  and  _571
REMARK  254  A    between atoms: _571  and  _572
REMARK  255  A    between atoms: _575  and  _577
REMARK  256  A    between atoms: _577  and  _578
REMARK  257  A    between atoms: _577  and  _580
REMARK  258  A    between atoms: _580  and  _581
REMARK  259  A    between atoms: _587  and  _589
REMARK  260  A    between atoms: _589  and  _590
REMARK  261  A    between atoms: _592  and  _594
REMARK  262  A    between atoms: _594  and  _595
REMARK  263  A    between atoms: _594  and  _597
REMARK  264  A    between atoms: _597  and  _598
REMARK  265  A    between atoms: _601  and  _603
REMARK  266  A    between atoms: _603  and  _604
REMARK  267  A    between atoms: _607  and  _609
REMARK  268  A    between atoms: _609  and  _610
REMARK  269  A    between atoms: _609  and  _612
REMARK  270  A    between atoms: _614  and  _616
REMARK  271  A    between atoms: _616  and  _617
REMARK  272  A    between atoms: _619  and  _621
REMARK  273  A    between atoms: _621  and  _622
REMARK  274  A    between atoms: _621  and  _624
REMARK  275  A    between atoms: _624  and  _625
REMARK  276  A    between atoms: _631  and  _633
REMARK  277  A    between atoms: _633  and  _634
REMARK  278  A    between atoms: _633  and  _636
REMARK  279  A    between atoms: _636  and  _637
REMARK  280  A    between atoms: _642  and  _643
REMARK                            x       y       z     vdW  Elec       q    Type
REMARK                         _______ _______ _______ _____ _____    ______ ____
ROOT
ATOM      1  O   HOH     1      13.268  41.040  -1.508  0.00  0.00    +0.000 OA
ENDROOT
TORSDOF 0
REMARK  Name = ../refined-set-2016/1xh9/1xh9_pocket.pdb
REMARK  280 active torsions:
REMARK  status: ('A' for Active; 'I' for Inactive)
REMARK    1  A    between atoms: _1  and  _3
REMARK    2  A    between atoms: _3  and  _4
REMARK    3  A    between atoms: _3  and  _6
REMARK    4  A    between atoms: _6  and  _7
REMARK    5  A    between atoms: _10  and  _12
REMARK    6  A    between atoms: _12  and  _13
REMARK    7  A    between atoms: _12  and  _15
REMARK    8  A    between atoms: _15  and  _16
REMARK    9  A    between atoms: _19  and  _21
REMARK   10  A    between atoms: _21  and  _22
REMARK   11  A    between atoms: _24  and  _26
REMARK   12  A    between atoms: _26  and  _27
REMARK   13  A    between atoms: _26  and  _29
REMARK   14  A    between atoms: _29  and  _30
REMARK   15  A    between atoms: _33  and  _35
REMARK   16  A    between atoms: _35  and  _36
REMARK   17  A    between atoms: _38  and  _40
REMARK   18  A    between atoms: _40  and  _41
REMARK   19  A    between atoms: _40  and  _43
REMARK   20  A    between atoms: _43  and  _44
REMARK   21  A    between atoms: _46  and  _48
REMARK   22  A    between atoms: _48  and  _49
REMARK   23  A    between atoms: _48  and  _51
REMARK   24  A    between atoms: _51  and  _52
REMARK   25  A    between atoms: _58  and  _60
REMARK   26  A    between atoms: _60  and  _61
REMARK   27  A    between atoms: _63  and  _65
REMARK   28  A    between atoms: _65  and  _66
REMARK   29  A    between atoms: _65  and  _68
REMARK   30  A    between atoms: _68  and  _69
REMARK   31  A    between atoms: _69  and  _70
REMARK   32  A    between atoms: _70  and  _71
REMARK   33  A    between atoms: _80  and  _82
REMARK   34  A    between atoms: _82  and  _83
REMARK   35  A    between atoms: _82  and  _85
REMARK   36  A    between atoms: _88  and  _90
REMARK   37  A    between atoms: _90  and  _91
REMARK   38  A    between atoms: _90  and  _93
REMARK   39  A    between atoms: _93  and  _94
REMARK   40  A    between atoms: _94  and  _95
REMARK   41  A    between atoms: _97  and  _99
REMARK   42  A    between atoms: _99  and  _100
REMARK   43  A    between atoms: _99  and  _102
REMARK   44  A    between atoms: _102  and  _103
REMARK   45  A    between atoms: _106  and  _108
REMARK   46  A    between atoms: _108  and  _109
REMARK   47  A    between atoms: _108  and  _111
REMARK   48  A    between atoms: _111  and  _112
REMARK   49  A    between atoms: _117  and  _118
REMARK   50  A    between atoms: _120  and  _122
REMARK   51  A    between atoms: _122  and  _123
REMARK   52  A    between atoms: _126  and  _128
REMARK   53  A    between atoms: _128  and  _129
REMARK   54  A    between atoms: _128  and  _131
REMARK   55  A    between atoms: _131  and  _132
REMARK   56  A    between atoms: _132  and  _133
REMARK   57  A    between atoms: _135  and  _137
REMARK   58  A    between atoms: _137  and  _138
REMARK   59  A    between atoms: _137  and  _140
REMARK   60  A    between atoms: _140  and  _141
REMARK   61  A    between atoms: _141  and  _142
REMARK   62  A    between atoms: _142  and  _143
REMARK   63  A    between atoms: _143  and  _144
REMARK   64  A    between atoms: _148  and  _150
REMARK   65  A    between atoms: _150  and  _151
REMARK   66  A    between atoms: _150  and  _153
REMARK   67  A    between atoms: _153  and  _154
REMARK   68  A    between atoms: _157  and  _159
REMARK   69  A    between atoms: _159  and  _160
REMARK   70  A    between atoms: _159  and  _162
REMARK   71  A    between atoms: _162  and  _163
REMARK   72  A    between atoms: _166  and  _168
REMARK   73  A    between atoms: _168  and  _169
REMARK   74  A    between atoms: _168  and  _171
REMARK   75  A    between atoms: _171  and  _172
REMARK   76  A    between atoms: _175  and  _177
REMARK   77  A    between atoms: _177  and  _178
REMARK   78  A    between atoms: _177  and  _180
REMARK   79  A    between atoms: _180  and  _181
REMARK   80  A    between atoms: _181  and  _182
REMARK   81  A    between atoms: _182  and  _183
REMARK   82  A    between atoms: _183  and  _184
REMARK   83  A    between atoms: _188  and  _190
REMARK   84  A    between atoms: _190  and  _191
REMARK   85  A    between atoms: _190  and  _193
REMARK   86  A    between atoms: _196  and  _198
REMARK   87  A    between atoms: _198  and  _199
REMARK   88  A    between atoms: _198  and  _201
REMARK   89  A    between atoms: _201  and  _202
REMARK   90  A    between atoms: _205  and  _207
REMARK   91  A    between atoms: _207  and  _208
REMARK   92  A    between atoms: _207  and  _210
REMARK   93  A    between atoms: _210  and  _211
REMARK   94  A    between atoms: _211  and  _212
REMARK   95  A    between atoms: _212  and  _213
REMARK   96  A    between atoms: _213  and  _214
REMARK   97  A    between atoms: _218  and  _220
REMARK   98  A    between atoms: _220  and  _221
REMARK   99  A    between atoms: _220  and  _223
REMARK  100  A    between atoms: _223  and  _224
REMARK  101  A    between atoms: _224  and  _225
REMARK  102  A    between atoms: _228  and  _230
REMARK  103  A    between atoms: _230  and  _231
REMARK  104  A    between atoms: _230  and  _233
REMARK  105  A    between atoms: _233  and  _234
REMARK  106  A    between atoms: _237  and  _239
REMARK  107  A    between atoms: _239  and  _240
REMARK  108  A    between atoms: _239  and  _242
REMARK  109  A    between atoms: _242  and  _243
REMARK  110  A    between atoms: _243  and  _244
REMARK  111  A    between atoms: _247  and  _249
REMARK  112  A    between atoms: _249  and  _250
REMARK  113  A    between atoms: _249  and  _252
REMARK  114  A    between atoms: _252  and  _253
REMARK  115  A    between atoms: _258  and  _260
REMARK  116  A    between atoms: _260  and  _261
REMARK  117  A    between atoms: _260  and  _263
REMARK  118  A    between atoms: _263  and  _264
REMARK  119  A    between atoms: _267  and  _269
REMARK  120  A    between atoms: _269  and  _270
REMARK  121  A    between atoms: _269  and  _272
REMARK  122  A    between atoms: _272  and  _273
REMARK  123  A    between atoms: _276  and  _278
REMARK  124  A    between atoms: _278  and  _279
REMARK  125  A    between atoms: _278  and  _281
REMARK  126  A    between atoms: _281  and  _282
REMARK  127  A    between atoms: _287  and  _289
REMARK  128  A    between atoms: _289  and  _290
REMARK  129  A    between atoms: _289  and  _292
REMARK  130  A    between atoms: _292  and  _293
REMARK  131  A    between atoms: _293  and  _294
REMARK  132  A    between atoms: _297  and  _299
REMARK  133  A    between atoms: _299  and  _300
REMARK  134  A    between atoms: _299  and  _302
REMARK  135  A    between atoms: _302  and  _303
REMARK  136  A    between atoms: _303  and  _304
REMARK  137  A    between atoms: _304  and  _305
REMARK  138  A    between atoms: _305  and  _306
REMARK  139  A    between atoms: _310  and  _312
REMARK  140  A    between atoms: _312  and  _313
REMARK  141  A    between atoms: _312  and  _315
REMARK  142  A    between atoms: _315  and  _316
REMARK  143  A    between atoms: _319  and  _321
REMARK  144  A    between atoms: _321  and  _322
REMARK  145  A    between atoms: _321  and  _324
REMARK  146  A    between atoms: _327  and  _329
REMARK  147  A    between atoms: _329  and  _330
REMARK  148  A    between atoms: _329  and  _332
REMARK  149  A    between atoms: _332  and  _333
REMARK  150  A    between atoms: _333  and  _334
REMARK  151  A    between atoms: _334  and  _335
REMARK  152  A    between atoms: _335  and  _336
REMARK  153  A    between atoms: _340  and  _342
REMARK  154  A    between atoms: _342  and  _343
REMARK  155  A    between atoms: _342  and  _345
REMARK  156  A    between atoms: _345  and  _346
REMARK  157  A    between atoms: _349  and  _351
REMARK  158  A    between atoms: _351  and  _352
REMARK  159  A    between atoms: _351  and  _354
REMARK  160  A    between atoms: _354  and  _355
REMARK  161  A    between atoms: _355  and  _356
REMARK  162  A    between atoms: _358  and  _360
REMARK  163  A    between atoms: _360  and  _361
REMARK  164  A    between atoms: _360  and  _363
REMARK  165  A    between atoms: _363  and  _364
REMARK  166  A    between atoms: _364  and  _365
REMARK  167  A    between atoms: _367  and  _369
REMARK  168  A    between atoms: _369  and  _370
REMARK  169  A    between atoms: _369  and  _372
REMARK  170  A    between atoms: _372  and  _373
REMARK  171  A    between atoms: _373  and  _374
REMARK  172  A    between atoms: _377  and  _379
REMARK  173  A    between atoms: _379  and  _380
REMARK  174  A    between atoms: _379  and  _382
REMARK  175  A    between atoms: _382  and  _383
REMARK  176  A    between atoms: _388  and  _389
REMARK  177  A    between atoms: _391  and  _393
REMARK  178  A    between atoms: _393  and  _394
REMARK  179  A    between atoms: _398  and  _399
REMARK  180  A    between atoms: _404  and  _406
REMARK  181  A    between atoms: _406  and  _407
REMARK  182  A    between atoms: _409  and  _411
REMARK  183  A    between atoms: _411  and  _412
REMARK  184  A    between atoms: _414  and  _416
REMARK  185  A    between atoms: _416  and  _417
REMARK  186  A    between atoms: _416  and  _419
REMARK  187  A    between atoms: _419  and  _420
REMARK  188  A    between atoms: _420  and  _421
REMARK  189  A    between atoms: _424  and  _426
REMARK  190  A    between atoms: _426  and  _427
REMARK  191  A    between atoms: _426  and  _429
REMARK  192  A    between atoms: _429  and  _430
REMARK  193  A    between atoms: _430  and  _431
REMARK  194  A    between atoms: _433  and  _435
REMARK  195  A    between atoms: _435  and  _436
REMARK  196  A    between atoms: _435  and  _438
REMARK  197  A    between atoms: _438  and  _439
REMARK  198  A    between atoms: _445  and  _447
REMARK  199  A    between atoms: _447  and  _448
REMARK  200  A    between atoms: _447  and  _450
REMARK  201  A    between atoms: _450  and  _451
REMARK  202  A    between atoms: _456  and  _457
REMARK  203  A    between atoms: _459  and  _461
REMARK  204  A    between atoms: _461  and  _462
REMARK  205  A    between atoms: _461  and  _464
REMARK  206  A    between atoms: _464  and  _465
REMARK  207  A    between atoms: _468  and  _470
REMARK  208  A    between atoms: _470  and  _471
REMARK  209  A    between atoms: _470  and  _473
REMARK  210  A    between atoms: _473  and  _474
REMARK  211  A    between atoms: _474  and  _475
REMARK  212  A    between atoms: _475  and  _476
REMARK  213  A    between atoms: _476  and  _477
REMARK  214  A    between atoms: _482  and  _483
REMARK  215  A    between atoms: _488  and  _490
REMARK  216  A    between atoms: _490  and  _491
REMARK  217  A    between atoms: _490  and  _493
REMARK  218  A    between atoms: _493  and  _494
REMARK  219  A    between atoms: _494  and  _495
REMARK  220  A    between atoms: _498  and  _500
REMARK  221  A    between atoms: _500  and  _501
REMARK  222  A    between atoms: _500  and  _503
REMARK  223  A    between atoms: _503  and  _504
REMARK  224  A    between atoms: _509  and  _511
REMARK  225  A    between atoms: _511  and  _512
REMARK  226  A    between atoms: _511  and  _514
REMARK  227  A    between atoms: _514  and  _515
REMARK  228  A    between atoms: _518  and  _520
REMARK  229  A    between atoms: _520  and  _521
REMARK  230  A    between atoms: _520  and  _523
REMARK  231  A    between atoms: _523  and  _524
REMARK  232  A    between atoms: _524  and  _525
REMARK  233  A    between atoms: _527  and  _529
REMARK  234  A    between atoms: _529  and  _530
REMARK  235  A    between atoms: _529  and  _532
REMARK  236  A    between atoms: _532  and  _533
REMARK  237  A    between atoms: _536  and  _538
REMARK  238  A    between atoms: _538  and  _539
REMARK  239  A    between atoms: _538  and  _541
REMARK  240  A    between atoms: _541  and  _542
REMARK  241  A    between atoms: _542  and  _543
REMARK  242  A    between atoms: _543  and  _544
REMARK  243  A    between atoms: _544  and  _545
REMARK  244  A    between atoms: _549  and  _551
REMARK  245  A    between atoms: _551  and  _552
REMARK  246  A    between atoms: _551  and  _554
REMARK  247  A    between atoms: _557  and  _559
REMARK  248  A    between atoms: _559  and  _560
REMARK  249  A    between atoms: _559  and  _562
REMARK  250  A    between atoms: _562  and  _563
REMARK  251  A    between atoms: _566  and  _568
REMARK  252  A    between atoms: _568  and  _569
REMARK  253  A    between atoms: _568  and  _571
REMARK  254  A    between atoms: _571  and  _572
REMARK  255  A    between atoms: _575  and  _577
REMARK  256  A    between atoms: _577  and  _578
REMARK  257  A    between atoms: _577  and  _580
REMARK  258  A    between atoms: _580  and  _581
REMARK  259  A    between atoms: _587  and  _589
REMARK  260  A    between atoms: _589  and  _590
REMARK  261  A    between atoms: _592  and  _594
REMARK  262  A    between atoms: _594  and  _595
REMARK  263  A    between atoms: _594  and  _597
REMARK  264  A    between atoms: _597  and  _598
REMARK  265  A    between atoms: _601  and  _603
REMARK  266  A    between atoms: _603  and  _604
REMARK  267  A    between atoms: _607  and  _609
REMARK  268  A    between atoms: _609  and  _610
REMARK  269  A    between atoms: _609  and  _612
REMARK  270  A    between atoms: _614  and  _616
REMARK  271  A    between atoms: _616  and  _617
REMARK  272  A    between atoms: _619  and  _621
REMARK  273  A    between atoms: _621  and  _622
REMARK  274  A    between atoms: _621  and  _624
REMARK  275  A    between atoms: _624  and  _625
REMARK  276  A    between atoms: _631  and  _633
REMARK  277  A    between atoms: _633  and  _634
REMARK  278  A    between atoms: _633  and  _636
REMARK  279  A    between atoms: _636  and  _637
REMARK  280  A    between atoms: _642  and  _643
REMARK                            x       y       z     vdW  Elec       q    Type
REMARK                         _______ _______ _______ _____ _____    ______ ____
ROOT
ATOM      1  O   HOH     1       5.840  37.276  18.311  0.00  0.00    +0.000 OA
ENDROOT
TORSDOF 0
REMARK  Name = ../refined-set-2016/1xh9/1xh9_pocket.pdb
REMARK  280 active torsions:
REMARK  status: ('A' for Active; 'I' for Inactive)
REMARK    1  A    between atoms: _1  and  _3
REMARK    2  A    between atoms: _3  and  _4
REMARK    3  A    between atoms: _3  and  _6
REMARK    4  A    between atoms: _6  and  _7
REMARK    5  A    between atoms: _10  and  _12
REMARK    6  A    between atoms: _12  and  _13
REMARK    7  A    between atoms: _12  and  _15
REMARK    8  A    between atoms: _15  and  _16
REMARK    9  A    between atoms: _19  and  _21
REMARK   10  A    between atoms: _21  and  _22
REMARK   11  A    between atoms: _24  and  _26
REMARK   12  A    between atoms: _26  and  _27
REMARK   13  A    between atoms: _26  and  _29
REMARK   14  A    between atoms: _29  and  _30
REMARK   15  A    between atoms: _33  and  _35
REMARK   16  A    between atoms: _35  and  _36
REMARK   17  A    between atoms: _38  and  _40
REMARK   18  A    between atoms: _40  and  _41
REMARK   19  A    between atoms: _40  and  _43
REMARK   20  A    between atoms: _43  and  _44
REMARK   21  A    between atoms: _46  and  _48
REMARK   22  A    between atoms: _48  and  _49
REMARK   23  A    between atoms: _48  and  _51
REMARK   24  A    between atoms: _51  and  _52
REMARK   25  A    between atoms: _58  and  _60
REMARK   26  A    between atoms: _60  and  _61
REMARK   27  A    between atoms: _63  and  _65
REMARK   28  A    between atoms: _65  and  _66
REMARK   29  A    between atoms: _65  and  _68
REMARK   30  A    between atoms: _68  and  _69
REMARK   31  A    between atoms: _69  and  _70
REMARK   32  A    between atoms: _70  and  _71
REMARK   33  A    between atoms: _80  and  _82
REMARK   34  A    between atoms: _82  and  _83
REMARK   35  A    between atoms: _82  and  _85
REMARK   36  A    between atoms: _88  and  _90
REMARK   37  A    between atoms: _90  and  _91
REMARK   38  A    between atoms: _90  and  _93
REMARK   39  A    between atoms: _93  and  _94
REMARK   40  A    between atoms: _94  and  _95
REMARK   41  A    between atoms: _97  and  _99
REMARK   42  A    between atoms: _99  and  _100
REMARK   43  A    between atoms: _99  and  _102
REMARK   44  A    between atoms: _102  and  _103
REMARK   45  A    between atoms: _106  and  _108
REMARK   46  A    between atoms: _108  and  _109
REMARK   47  A    between atoms: _108  and  _111
REMARK   48  A    between atoms: _111  and  _112
REMARK   49  A    between atoms: _117  and  _118
REMARK   50  A    between atoms: _120  and  _122
REMARK   51  A    between atoms: _122  and  _123
REMARK   52  A    between atoms: _126  and  _128
REMARK   53  A    between atoms: _128  and  _129
REMARK   54  A    between atoms: _128  and  _131
REMARK   55  A    between atoms: _131  and  _132
REMARK   56  A    between atoms: _132  and  _133
REMARK   57  A    between atoms: _135  and  _137
REMARK   58  A    between atoms: _137  and  _138
REMARK   59  A    between atoms: _137  and  _140
REMARK   60  A    between atoms: _140  and  _141
REMARK   61  A    between atoms: _141  and  _142
REMARK   62  A    between atoms: _142  and  _143
REMARK   63  A    between atoms: _143  and  _144
REMARK   64  A    between atoms: _148  and  _150
REMARK   65  A    between atoms: _150  and  _151
REMARK   66  A    between atoms: _150  and  _153
REMARK   67  A    between atoms: _153  and  _154
REMARK   68  A    between atoms: _157  and  _159
REMARK   69  A    between atoms: _159  and  _160
REMARK   70  A    between atoms: _159  and  _162
REMARK   71  A    between atoms: _162  and  _163
REMARK   72  A    between atoms: _166  and  _168
REMARK   73  A    between atoms: _168  and  _169
REMARK   74  A    between atoms: _168  and  _171
REMARK   75  A    between atoms: _171  and  _172
REMARK   76  A    between atoms: _175  and  _177
REMARK   77  A    between atoms: _177  and  _178
REMARK   78  A    between atoms: _177  and  _180
REMARK   79  A    between atoms: _180  and  _181
REMARK   80  A    between atoms: _181  and  _182
REMARK   81  A    between atoms: _182  and  _183
REMARK   82  A    between atoms: _183  and  _184
REMARK   83  A    between atoms: _188  and  _190
REMARK   84  A    between atoms: _190  and  _191
REMARK   85  A    between atoms: _190  and  _193
REMARK   86  A    between atoms: _196  and  _198
REMARK   87  A    between atoms: _198  and  _199
REMARK   88  A    between atoms: _198  and  _201
REMARK   89  A    between atoms: _201  and  _202
REMARK   90  A    between atoms: _205  and  _207
REMARK   91  A    between atoms: _207  and  _208
REMARK   92  A    between atoms: _207  and  _210
REMARK   93  A    between atoms: _210  and  _211
REMARK   94  A    between atoms: _211  and  _212
REMARK   95  A    between atoms: _212  and  _213
REMARK   96  A    between atoms: _213  and  _214
REMARK   97  A    between atoms: _218  and  _220
REMARK   98  A    between atoms: _220  and  _221
REMARK   99  A    between atoms: _220  and  _223
REMARK  100  A    between atoms: _223  and  _224
REMARK  101  A    between atoms: _224  and  _225
REMARK  102  A    between atoms: _228  and  _230
REMARK  103  A    between atoms: _230  and  _231
REMARK  104  A    between atoms: _230  and  _233
REMARK  105  A    between atoms: _233  and  _234
REMARK  106  A    between atoms: _237  and  _239
REMARK  107  A    between atoms: _239  and  _240
REMARK  108  A    between atoms: _239  and  _242
REMARK  109  A    between atoms: _242  and  _243
REMARK  110  A    between atoms: _243  and  _244
REMARK  111  A    between atoms: _247  and  _249
REMARK  112  A    between atoms: _249  and  _250
REMARK  113  A    between atoms: _249  and  _252
REMARK  114  A    between atoms: _252  and  _253
REMARK  115  A    between atoms: _258  and  _260
REMARK  116  A    between atoms: _260  and  _261
REMARK  117  A    between atoms: _260  and  _263
REMARK  118  A    between atoms: _263  and  _264
REMARK  119  A    between atoms: _267  and  _269
REMARK  120  A    between atoms: _269  and  _270
REMARK  121  A    between atoms: _269  and  _272
REMARK  122  A    between atoms: _272  and  _273
REMARK  123  A    between atoms: _276  and  _278
REMARK  124  A    between atoms: _278  and  _279
REMARK  125  A    between atoms: _278  and  _281
REMARK  126  A    between atoms: _281  and  _282
REMARK  127  A    between atoms: _287  and  _289
REMARK  128  A    between atoms: _289  and  _290
REMARK  129  A    between atoms: _289  and  _292
REMARK  130  A    between atoms: _292  and  _293
REMARK  131  A    between atoms: _293  and  _294
REMARK  132  A    between atoms: _297  and  _299
REMARK  133  A    between atoms: _299  and  _300
REMARK  134  A    between atoms: _299  and  _302
REMARK  135  A    between atoms: _302  and  _303
REMARK  136  A    between atoms: _303  and  _304
REMARK  137  A    between atoms: _304  and  _305
REMARK  138  A    between atoms: _305  and  _306
REMARK  139  A    between atoms: _310  and  _312
REMARK  140  A    between atoms: _312  and  _313
REMARK  141  A    between atoms: _312  and  _315
REMARK  142  A    between atoms: _315  and  _316
REMARK  143  A    between atoms: _319  and  _321
REMARK  144  A    between atoms: _321  and  _322
REMARK  145  A    between atoms: _321  and  _324
REMARK  146  A    between atoms: _327  and  _329
REMARK  147  A    between atoms: _329  and  _330
REMARK  148  A    between atoms: _329  and  _332
REMARK  149  A    between atoms: _332  and  _333
REMARK  150  A    between atoms: _333  and  _334
REMARK  151  A    between atoms: _334  and  _335
REMARK  152  A    between atoms: _335  and  _336
REMARK  153  A    between atoms: _340  and  _342
REMARK  154  A    between atoms: _342  and  _343
REMARK  155  A    between atoms: _342  and  _345
REMARK  156  A    between atoms: _345  and  _346
REMARK  157  A    between atoms: _349  and  _351
REMARK  158  A    between atoms: _351  and  _352
REMARK  159  A    between atoms: _351  and  _354
REMARK  160  A    between atoms: _354  and  _355
REMARK  161  A    between atoms: _355  and  _356
REMARK  162  A    between atoms: _358  and  _360
REMARK  163  A    between atoms: _360  and  _361
REMARK  164  A    between atoms: _360  and  _363
REMARK  165  A    between atoms: _363  and  _364
REMARK  166  A    between atoms: _364  and  _365
REMARK  167  A    between atoms: _367  and  _369
REMARK  168  A    between atoms: _369  and  _370
REMARK  169  A    between atoms: _369  and  _372
REMARK  170  A    between atoms: _372  and  _373
REMARK  171  A    between atoms: _373  and  _374
REMARK  172  A    between atoms: _377  and  _379
REMARK  173  A    between atoms: _379  and  _380
REMARK  174  A    between atoms: _379  and  _382
REMARK  175  A    between atoms: _382  and  _383
REMARK  176  A    between atoms: _388  and  _389
REMARK  177  A    between atoms: _391  and  _393
REMARK  178  A    between atoms: _393  and  _394
REMARK  179  A    between atoms: _398  and  _399
REMARK  180  A    between atoms: _404  and  _406
REMARK  181  A    between atoms: _406  and  _407
REMARK  182  A    between atoms: _409  and  _411
REMARK  183  A    between atoms: _411  and  _412
REMARK  184  A    between atoms: _414  and  _416
REMARK  185  A    between atoms: _416  and  _417
REMARK  186  A    between atoms: _416  and  _419
REMARK  187  A    between atoms: _419  and  _420
REMARK  188  A    between atoms: _420  and  _421
REMARK  189  A    between atoms: _424  and  _426
REMARK  190  A    between atoms: _426  and  _427
REMARK  191  A    between atoms: _426  and  _429
REMARK  192  A    between atoms: _429  and  _430
REMARK  193  A    between atoms: _430  and  _431
REMARK  194  A    between atoms: _433  and  _435
REMARK  195  A    between atoms: _435  and  _436
REMARK  196  A    between atoms: _435  and  _438
REMARK  197  A    between atoms: _438  and  _439
REMARK  198  A    between atoms: _445  and  _447
REMARK  199  A    between atoms: _447  and  _448
REMARK  200  A    between atoms: _447  and  _450
REMARK  201  A    between atoms: _450  and  _451
REMARK  202  A    between atoms: _456  and  _457
REMARK  203  A    between atoms: _459  and  _461
REMARK  204  A    between atoms: _461  and  _462
REMARK  205  A    between atoms: _461  and  _464
REMARK  206  A    between atoms: _464  and  _465
REMARK  207  A    between atoms: _468  and  _470
REMARK  208  A    between atoms: _470  and  _471
REMARK  209  A    between atoms: _470  and  _473
REMARK  210  A    between atoms: _473  and  _474
REMARK  211  A    between atoms: _474  and  _475
REMARK  212  A    between atoms: _475  and  _476
REMARK  213  A    between atoms: _476  and  _477
REMARK  214  A    between atoms: _482  and  _483
REMARK  215  A    between atoms: _488  and  _490
REMARK  216  A    between atoms: _490  and  _491
REMARK  217  A    between atoms: _490  and  _493
REMARK  218  A    between atoms: _493  and  _494
REMARK  219  A    between atoms: _494  and  _495
REMARK  220  A    between atoms: _498  and  _500
REMARK  221  A    between atoms: _500  and  _501
REMARK  222  A    between atoms: _500  and  _503
REMARK  223  A    between atoms: _503  and  _504
REMARK  224  A    between atoms: _509  and  _511
REMARK  225  A    between atoms: _511  and  _512
REMARK  226  A    between atoms: _511  and  _514
REMARK  227  A    between atoms: _514  and  _515
REMARK  228  A    between atoms: _518  and  _520
REMARK  229  A    between atoms: _520  and  _521
REMARK  230  A    between atoms: _520  and  _523
REMARK  231  A    between atoms: _523  and  _524
REMARK  232  A    between atoms: _524  and  _525
REMARK  233  A    between atoms: _527  and  _529
REMARK  234  A    between atoms: _529  and  _530
REMARK  235  A    between atoms: _529  and  _532
REMARK  236  A    between atoms: _532  and  _533
REMARK  237  A    between atoms: _536  and  _538
REMARK  238  A    between atoms: _538  and  _539
REMARK  239  A    between atoms: _538  and  _541
REMARK  240  A    between atoms: _541  and  _542
REMARK  241  A    between atoms: _542  and  _543
REMARK  242  A    between atoms: _543  and  _544
REMARK  243  A    between atoms: _544  and  _545
REMARK  244  A    between atoms: _549  and  _551
REMARK  245  A    between atoms: _551  and  _552
REMARK  246  A    between atoms: _551  and  _554
REMARK  247  A    between atoms: _557  and  _559
REMARK  248  A    between atoms: _559  and  _560
REMARK  249  A    between atoms: _559  and  _562
REMARK  250  A    between atoms: _562  and  _563
REMARK  251  A    between atoms: _566  and  _568
REMARK  252  A    between atoms: _568  and  _569
REMARK  253  A    between atoms: _568  and  _571
REMARK  254  A    between atoms: _571  and  _572
REMARK  255  A    between atoms: _575  and  _577
REMARK  256  A    between atoms: _577  and  _578
REMARK  257  A    between atoms: _577  and  _580
REMARK  258  A    between atoms: _580  and  _581
REMARK  259  A    between atoms: _587  and  _589
REMARK  260  A    between atoms: _589  and  _590
REMARK  261  A    between atoms: _592  and  _594
REMARK  262  A    between atoms: _594  and  _595
REMARK  263  A    between atoms: _594  and  _597
REMARK  264  A    between atoms: _597  and  _598
REMARK  265  A    between atoms: _601  and  _603
REMARK  266  A    between atoms: _603  and  _604
REMARK  267  A    between atoms: _607  and  _609
REMARK  268  A    between atoms: _609  and  _610
REMARK  269  A    between atoms: _609  and  _612
REMARK  270  A    between atoms: _614  and  _616
REMARK  271  A    between atoms: _616  and  _617
REMARK  272  A    between atoms: _619  and  _621
REMARK  273  A    between atoms: _621  and  _622
REMARK  274  A    between atoms: _621  and  _624
REMARK  275  A    between atoms: _624  and  _625
REMARK  276  A    between atoms: _631  and  _633
REMARK  277  A    between atoms: _633  and  _634
REMARK  278  A    between atoms: _633  and  _636
REMARK  279  A    between atoms: _636  and  _637
REMARK  280  A    between atoms: _642  and  _643
REMARK                            x       y       z     vdW  Elec       q    Type
REMARK                         _______ _______ _______ _____ _____    ______ ____
ROOT
ATOM      1  O   HOH     1       9.594  46.780  13.303  0.00  0.00    +0.000 OA
ENDROOT
TORSDOF 0
REMARK  Name = ../refined-set-2016/1xh9/1xh9_pocket.pdb
REMARK  280 active torsions:
REMARK  status: ('A' for Active; 'I' for Inactive)
REMARK    1  A    between atoms: _1  and  _3
REMARK    2  A    between atoms: _3  and  _4
REMARK    3  A    between atoms: _3  and  _6
REMARK    4  A    between atoms: _6  and  _7
REMARK    5  A    between atoms: _10  and  _12
REMARK    6  A    between atoms: _12  and  _13
REMARK    7  A    between atoms: _12  and  _15
REMARK    8  A    between atoms: _15  and  _16
REMARK    9  A    between atoms: _19  and  _21
REMARK   10  A    between atoms: _21  and  _22
REMARK   11  A    between atoms: _24  and  _26
REMARK   12  A    between atoms: _26  and  _27
REMARK   13  A    between atoms: _26  and  _29
REMARK   14  A    between atoms: _29  and  _30
REMARK   15  A    between atoms: _33  and  _35
REMARK   16  A    between atoms: _35  and  _36
REMARK   17  A    between atoms: _38  and  _40
REMARK   18  A    between atoms: _40  and  _41
REMARK   19  A    between atoms: _40  and  _43
REMARK   20  A    between atoms: _43  and  _44
REMARK   21  A    between atoms: _46  and  _48
REMARK   22  A    between atoms: _48  and  _49
REMARK   23  A    between atoms: _48  and  _51
REMARK   24  A    between atoms: _51  and  _52
REMARK   25  A    between atoms: _58  and  _60
REMARK   26  A    between atoms: _60  and  _61
REMARK   27  A    between atoms: _63  and  _65
REMARK   28  A    between atoms: _65  and  _66
REMARK   29  A    between atoms: _65  and  _68
REMARK   30  A    between atoms: _68  and  _69
REMARK   31  A    between atoms: _69  and  _70
REMARK   32  A    between atoms: _70  and  _71
REMARK   33  A    between atoms: _80  and  _82
REMARK   34  A    between atoms: _82  and  _83
REMARK   35  A    between atoms: _82  and  _85
REMARK   36  A    between atoms: _88  and  _90
REMARK   37  A    between atoms: _90  and  _91
REMARK   38  A    between atoms: _90  and  _93
REMARK   39  A    between atoms: _93  and  _94
REMARK   40  A    between atoms: _94  and  _95
REMARK   41  A    between atoms: _97  and  _99
REMARK   42  A    between atoms: _99  and  _100
REMARK   43  A    between atoms: _99  and  _102
REMARK   44  A    between atoms: _102  and  _103
REMARK   45  A    between atoms: _106  and  _108
REMARK   46  A    between atoms: _108  and  _109
REMARK   47  A    between atoms: _108  and  _111
REMARK   48  A    between atoms: _111  and  _112
REMARK   49  A    between atoms: _117  and  _118
REMARK   50  A    between atoms: _120  and  _122
REMARK   51  A    between atoms: _122  and  _123
REMARK   52  A    between atoms: _126  and  _128
REMARK   53  A    between atoms: _128  and  _129
REMARK   54  A    between atoms: _128  and  _131
REMARK   55  A    between atoms: _131  and  _132
REMARK   56  A    between atoms: _132  and  _133
REMARK   57  A    between atoms: _135  and  _137
REMARK   58  A    between atoms: _137  and  _138
REMARK   59  A    between atoms: _137  and  _140
REMARK   60  A    between atoms: _140  and  _141
REMARK   61  A    between atoms: _141  and  _142
REMARK   62  A    between atoms: _142  and  _143
REMARK   63  A    between atoms: _143  and  _144
REMARK   64  A    between atoms: _148  and  _150
REMARK   65  A    between atoms: _150  and  _151
REMARK   66  A    between atoms: _150  and  _153
REMARK   67  A    between atoms: _153  and  _154
REMARK   68  A    between atoms: _157  and  _159
REMARK   69  A    between atoms: _159  and  _160
REMARK   70  A    between atoms: _159  and  _162
REMARK   71  A    between atoms: _162  and  _163
REMARK   72  A    between atoms: _166  and  _168
REMARK   73  A    between atoms: _168  and  _169
REMARK   74  A    between atoms: _168  and  _171
REMARK   75  A    between atoms: _171  and  _172
REMARK   76  A    between atoms: _175  and  _177
REMARK   77  A    between atoms: _177  and  _178
REMARK   78  A    between atoms: _177  and  _180
REMARK   79  A    between atoms: _180  and  _181
REMARK   80  A    between atoms: _181  and  _182
REMARK   81  A    between atoms: _182  and  _183
REMARK   82  A    between atoms: _183  and  _184
REMARK   83  A    between atoms: _188  and  _190
REMARK   84  A    between atoms: _190  and  _191
REMARK   85  A    between atoms: _190  and  _193
REMARK   86  A    between atoms: _196  and  _198
REMARK   87  A    between atoms: _198  and  _199
REMARK   88  A    between atoms: _198  and  _201
REMARK   89  A    between atoms: _201  and  _202
REMARK   90  A    between atoms: _205  and  _207
REMARK   91  A    between atoms: _207  and  _208
REMARK   92  A    between atoms: _207  and  _210
REMARK   93  A    between atoms: _210  and  _211
REMARK   94  A    between atoms: _211  and  _212
REMARK   95  A    between atoms: _212  and  _213
REMARK   96  A    between atoms: _213  and  _214
REMARK   97  A    between atoms: _218  and  _220
REMARK   98  A    between atoms: _220  and  _221
REMARK   99  A    between atoms: _220  and  _223
REMARK  100  A    between atoms: _223  and  _224
REMARK  101  A    between atoms: _224  and  _225
REMARK  102  A    between atoms: _228  and  _230
REMARK  103  A    between atoms: _230  and  _231
REMARK  104  A    between atoms: _230  and  _233
REMARK  105  A    between atoms: _233  and  _234
REMARK  106  A    between atoms: _237  and  _239
REMARK  107  A    between atoms: _239  and  _240
REMARK  108  A    between atoms: _239  and  _242
REMARK  109  A    between atoms: _242  and  _243
REMARK  110  A    between atoms: _243  and  _244
REMARK  111  A    between atoms: _247  and  _249
REMARK  112  A    between atoms: _249  and  _250
REMARK  113  A    between atoms: _249  and  _252
REMARK  114  A    between atoms: _252  and  _253
REMARK  115  A    between atoms: _258  and  _260
REMARK  116  A    between atoms: _260  and  _261
REMARK  117  A    between atoms: _260  and  _263
REMARK  118  A    between atoms: _263  and  _264
REMARK  119  A    between atoms: _267  and  _269
REMARK  120  A    between atoms: _269  and  _270
REMARK  121  A    between atoms: _269  and  _272
REMARK  122  A    between atoms: _272  and  _273
REMARK  123  A    between atoms: _276  and  _278
REMARK  124  A    between atoms: _278  and  _279
REMARK  125  A    between atoms: _278  and  _281
REMARK  126  A    between atoms: _281  and  _282
REMARK  127  A    between atoms: _287  and  _289
REMARK  128  A    between atoms: _289  and  _290
REMARK  129  A    between atoms: _289  and  _292
REMARK  130  A    between atoms: _292  and  _293
REMARK  131  A    between atoms: _293  and  _294
REMARK  132  A    between atoms: _297  and  _299
REMARK  133  A    between atoms: _299  and  _300
REMARK  134  A    between atoms: _299  and  _302
REMARK  135  A    between atoms: _302  and  _303
REMARK  136  A    between atoms: _303  and  _304
REMARK  137  A    between atoms: _304  and  _305
REMARK  138  A    between atoms: _305  and  _306
REMARK  139  A    between atoms: _310  and  _312
REMARK  140  A    between atoms: _312  and  _313
REMARK  141  A    between atoms: _312  and  _315
REMARK  142  A    between atoms: _315  and  _316
REMARK  143  A    between atoms: _319  and  _321
REMARK  144  A    between atoms: _321  and  _322
REMARK  145  A    between atoms: _321  and  _324
REMARK  146  A    between atoms: _327  and  _329
REMARK  147  A    between atoms: _329  and  _330
REMARK  148  A    between atoms: _329  and  _332
REMARK  149  A    between atoms: _332  and  _333
REMARK  150  A    between atoms: _333  and  _334
REMARK  151  A    between atoms: _334  and  _335
REMARK  152  A    between atoms: _335  and  _336
REMARK  153  A    between atoms: _340  and  _342
REMARK  154  A    between atoms: _342  and  _343
REMARK  155  A    between atoms: _342  and  _345
REMARK  156  A    between atoms: _345  and  _346
REMARK  157  A    between atoms: _349  and  _351
REMARK  158  A    between atoms: _351  and  _352
REMARK  159  A    between atoms: _351  and  _354
REMARK  160  A    between atoms: _354  and  _355
REMARK  161  A    between atoms: _355  and  _356
REMARK  162  A    between atoms: _358  and  _360
REMARK  163  A    between atoms: _360  and  _361
REMARK  164  A    between atoms: _360  and  _363
REMARK  165  A    between atoms: _363  and  _364
REMARK  166  A    between atoms: _364  and  _365
REMARK  167  A    between atoms: _367  and  _369
REMARK  168  A    between atoms: _369  and  _370
REMARK  169  A    between atoms: _369  and  _372
REMARK  170  A    between atoms: _372  and  _373
REMARK  171  A    between atoms: _373  and  _374
REMARK  172  A    between atoms: _377  and  _379
REMARK  173  A    between atoms: _379  and  _380
REMARK  174  A    between atoms: _379  and  _382
REMARK  175  A    between atoms: _382  and  _383
REMARK  176  A    between atoms: _388  and  _389
REMARK  177  A    between atoms: _391  and  _393
REMARK  178  A    between atoms: _393  and  _394
REMARK  179  A    between atoms: _398  and  _399
REMARK  180  A    between atoms: _404  and  _406
REMARK  181  A    between atoms: _406  and  _407
REMARK  182  A    between atoms: _409  and  _411
REMARK  183  A    between atoms: _411  and  _412
REMARK  184  A    between atoms: _414  and  _416
REMARK  185  A    between atoms: _416  and  _417
REMARK  186  A    between atoms: _416  and  _419
REMARK  187  A    between atoms: _419  and  _420
REMARK  188  A    between atoms: _420  and  _421
REMARK  189  A    between atoms: _424  and  _426
REMARK  190  A    between atoms: _426  and  _427
REMARK  191  A    between atoms: _426  and  _429
REMARK  192  A    between atoms: _429  and  _430
REMARK  193  A    between atoms: _430  and  _431
REMARK  194  A    between atoms: _433  and  _435
REMARK  195  A    between atoms: _435  and  _436
REMARK  196  A    between atoms: _435  and  _438
REMARK  197  A    between atoms: _438  and  _439
REMARK  198  A    between atoms: _445  and  _447
REMARK  199  A    between atoms: _447  and  _448
REMARK  200  A    between atoms: _447  and  _450
REMARK  201  A    between atoms: _450  and  _451
REMARK  202  A    between atoms: _456  and  _457
REMARK  203  A    between atoms: _459  and  _461
REMARK  204  A    between atoms: _461  and  _462
REMARK  205  A    between atoms: _461  and  _464
REMARK  206  A    between atoms: _464  and  _465
REMARK  207  A    between atoms: _468  and  _470
REMARK  208  A    between atoms: _470  and  _471
REMARK  209  A    between atoms: _470  and  _473
REMARK  210  A    between atoms: _473  and  _474
REMARK  211  A    between atoms: _474  and  _475
REMARK  212  A    between atoms: _475  and  _476
REMARK  213  A    between atoms: _476  and  _477
REMARK  214  A    between atoms: _482  and  _483
REMARK  215  A    between atoms: _488  and  _490
REMARK  216  A    between atoms: _490  and  _491
REMARK  217  A    between atoms: _490  and  _493
REMARK  218  A    between atoms: _493  and  _494
REMARK  219  A    between atoms: _494  and  _495
REMARK  220  A    between atoms: _498  and  _500
REMARK  221  A    between atoms: _500  and  _501
REMARK  222  A    between atoms: _500  and  _503
REMARK  223  A    between atoms: _503  and  _504
REMARK  224  A    between atoms: _509  and  _511
REMARK  225  A    between atoms: _511  and  _512
REMARK  226  A    between atoms: _511  and  _514
REMARK  227  A    between atoms: _514  and  _515
REMARK  228  A    between atoms: _518  and  _520
REMARK  229  A    between atoms: _520  and  _521
REMARK  230  A    between atoms: _520  and  _523
REMARK  231  A    between atoms: _523  and  _524
REMARK  232  A    between atoms: _524  and  _525
REMARK  233  A    between atoms: _527  and  _529
REMARK  234  A    between atoms: _529  and  _530
REMARK  235  A    between atoms: _529  and  _532
REMARK  236  A    between atoms: _532  and  _533
REMARK  237  A    between atoms: _536  and  _538
REMARK  238  A    between atoms: _538  and  _539
REMARK  239  A    between atoms: _538  and  _541
REMARK  240  A    between atoms: _541  and  _542
REMARK  241  A    between atoms: _542  and  _543
REMARK  242  A    between atoms: _543  and  _544
REMARK  243  A    between atoms: _544  and  _545
REMARK  244  A    between atoms: _549  and  _551
REMARK  245  A    between atoms: _551  and  _552
REMARK  246  A    between atoms: _551  and  _554
REMARK  247  A    between atoms: _557  and  _559
REMARK  248  A    between atoms: _559  and  _560
REMARK  249  A    between atoms: _559  and  _562
REMARK  250  A    between atoms: _562  and  _563
REMARK  251  A    between atoms: _566  and  _568
REMARK  252  A    between atoms: _568  and  _569
REMARK  253  A    between atoms: _568  and  _571
REMARK  254  A    between atoms: _571  and  _572
REMARK  255  A    between atoms: _575  and  _577
REMARK  256  A    between atoms: _577  and  _578
REMARK  257  A    between atoms: _577  and  _580
REMARK  258  A    between atoms: _580  and  _581
REMARK  259  A    between atoms: _587  and  _589
REMARK  260  A    between atoms: _589  and  _590
REMARK  261  A    between atoms: _592  and  _594
REMARK  262  A    between atoms: _594  and  _595
REMARK  263  A    between atoms: _594  and  _597
REMARK  264  A    between atoms: _597  and  _598
REMARK  265  A    between atoms: _601  and  _603
REMARK  266  A    between atoms: _603  and  _604
REMARK  267  A    between atoms: _607  and  _609
REMARK  268  A    between atoms: _609  and  _610
REMARK  269  A    between atoms: _609  and  _612
REMARK  270  A    between atoms: _614  and  _616
REMARK  271  A    between atoms: _616  and  _617
REMARK  272  A    between atoms: _619  and  _621
REMARK  273  A    between atoms: _621  and  _622
REMARK  274  A    between atoms: _621  and  _624
REMARK  275  A    between atoms: _624  and  _625
REMARK  276  A    between atoms: _631  and  _633
REMARK  277  A    between atoms: _633  and  _634
REMARK  278  A    between atoms: _633  and  _636
REMARK  279  A    between atoms: _636  and  _637
REMARK  280  A    between atoms: _642  and  _643
REMARK                            x       y       z     vdW  Elec       q    Type
REMARK                         _______ _______ _______ _____ _____    ______ ____
ROOT
ATOM      1  O   HOH     1       6.230  34.145  15.681  0.00  0.00    +0.000 OA
ENDROOT
TORSDOF 0
REMARK  Name = ../refined-set-2016/1xh9/1xh9_pocket.pdb
REMARK  280 active torsions:
REMARK  status: ('A' for Active; 'I' for Inactive)
REMARK    1  A    between atoms: _1  and  _3
REMARK    2  A    between atoms: _3  and  _4
REMARK    3  A    between atoms: _3  and  _6
REMARK    4  A    between atoms: _6  and  _7
REMARK    5  A    between atoms: _10  and  _12
REMARK    6  A    between atoms: _12  and  _13
REMARK    7  A    between atoms: _12  and  _15
REMARK    8  A    between atoms: _15  and  _16
REMARK    9  A    between atoms: _19  and  _21
REMARK   10  A    between atoms: _21  and  _22
REMARK   11  A    between atoms: _24  and  _26
REMARK   12  A    between atoms: _26  and  _27
REMARK   13  A    between atoms: _26  and  _29
REMARK   14  A    between atoms: _29  and  _30
REMARK   15  A    between atoms: _33  and  _35
REMARK   16  A    between atoms: _35  and  _36
REMARK   17  A    between atoms: _38  and  _40
REMARK   18  A    between atoms: _40  and  _41
REMARK   19  A    between atoms: _40  and  _43
REMARK   20  A    between atoms: _43  and  _44
REMARK   21  A    between atoms: _46  and  _48
REMARK   22  A    between atoms: _48  and  _49
REMARK   23  A    between atoms: _48  and  _51
REMARK   24  A    between atoms: _51  and  _52
REMARK   25  A    between atoms: _58  and  _60
REMARK   26  A    between atoms: _60  and  _61
REMARK   27  A    between atoms: _63  and  _65
REMARK   28  A    between atoms: _65  and  _66
REMARK   29  A    between atoms: _65  and  _68
REMARK   30  A    between atoms: _68  and  _69
REMARK   31  A    between atoms: _69  and  _70
REMARK   32  A    between atoms: _70  and  _71
REMARK   33  A    between atoms: _80  and  _82
REMARK   34  A    between atoms: _82  and  _83
REMARK   35  A    between atoms: _82  and  _85
REMARK   36  A    between atoms: _88  and  _90
REMARK   37  A    between atoms: _90  and  _91
REMARK   38  A    between atoms: _90  and  _93
REMARK   39  A    between atoms: _93  and  _94
REMARK   40  A    between atoms: _94  and  _95
REMARK   41  A    between atoms: _97  and  _99
REMARK   42  A    between atoms: _99  and  _100
REMARK   43  A    between atoms: _99  and  _102
REMARK   44  A    between atoms: _102  and  _103
REMARK   45  A    between atoms: _106  and  _108
REMARK   46  A    between atoms: _108  and  _109
REMARK   47  A    between atoms: _108  and  _111
REMARK   48  A    between atoms: _111  and  _112
REMARK   49  A    between atoms: _117  and  _118
REMARK   50  A    between atoms: _120  and  _122
REMARK   51  A    between atoms: _122  and  _123
REMARK   52  A    between atoms: _126  and  _128
REMARK   53  A    between atoms: _128  and  _129
REMARK   54  A    between atoms: _128  and  _131
REMARK   55  A    between atoms: _131  and  _132
REMARK   56  A    between atoms: _132  and  _133
REMARK   57  A    between atoms: _135  and  _137
REMARK   58  A    between atoms: _137  and  _138
REMARK   59  A    between atoms: _137  and  _140
REMARK   60  A    between atoms: _140  and  _141
REMARK   61  A    between atoms: _141  and  _142
REMARK   62  A    between atoms: _142  and  _143
REMARK   63  A    between atoms: _143  and  _144
REMARK   64  A    between atoms: _148  and  _150
REMARK   65  A    between atoms: _150  and  _151
REMARK   66  A    between atoms: _150  and  _153
REMARK   67  A    between atoms: _153  and  _154
REMARK   68  A    between atoms: _157  and  _159
REMARK   69  A    between atoms: _159  and  _160
REMARK   70  A    between atoms: _159  and  _162
REMARK   71  A    between atoms: _162  and  _163
REMARK   72  A    between atoms: _166  and  _168
REMARK   73  A    between atoms: _168  and  _169
REMARK   74  A    between atoms: _168  and  _171
REMARK   75  A    between atoms: _171  and  _172
REMARK   76  A    between atoms: _175  and  _177
REMARK   77  A    between atoms: _177  and  _178
REMARK   78  A    between atoms: _177  and  _180
REMARK   79  A    between atoms: _180  and  _181
REMARK   80  A    between atoms: _181  and  _182
REMARK   81  A    between atoms: _182  and  _183
REMARK   82  A    between atoms: _183  and  _184
REMARK   83  A    between atoms: _188  and  _190
REMARK   84  A    between atoms: _190  and  _191
REMARK   85  A    between atoms: _190  and  _193
REMARK   86  A    between atoms: _196  and  _198
REMARK   87  A    between atoms: _198  and  _199
REMARK   88  A    between atoms: _198  and  _201
REMARK   89  A    between atoms: _201  and  _202
REMARK   90  A    between atoms: _205  and  _207
REMARK   91  A    between atoms: _207  and  _208
REMARK   92  A    between atoms: _207  and  _210
REMARK   93  A    between atoms: _210  and  _211
REMARK   94  A    between atoms: _211  and  _212
REMARK   95  A    between atoms: _212  and  _213
REMARK   96  A    between atoms: _213  and  _214
REMARK   97  A    between atoms: _218  and  _220
REMARK   98  A    between atoms: _220  and  _221
REMARK   99  A    between atoms: _220  and  _223
REMARK  100  A    between atoms: _223  and  _224
REMARK  101  A    between atoms: _224  and  _225
REMARK  102  A    between atoms: _228  and  _230
REMARK  103  A    between atoms: _230  and  _231
REMARK  104  A    between atoms: _230  and  _233
REMARK  105  A    between atoms: _233  and  _234
REMARK  106  A    between atoms: _237  and  _239
REMARK  107  A    between atoms: _239  and  _240
REMARK  108  A    between atoms: _239  and  _242
REMARK  109  A    between atoms: _242  and  _243
REMARK  110  A    between atoms: _243  and  _244
REMARK  111  A    between atoms: _247  and  _249
REMARK  112  A    between atoms: _249  and  _250
REMARK  113  A    between atoms: _249  and  _252
REMARK  114  A    between atoms: _252  and  _253
REMARK  115  A    between atoms: _258  and  _260
REMARK  116  A    between atoms: _260  and  _261
REMARK  117  A    between atoms: _260  and  _263
REMARK  118  A    between atoms: _263  and  _264
REMARK  119  A    between atoms: _267  and  _269
REMARK  120  A    between atoms: _269  and  _270
REMARK  121  A    between atoms: _269  and  _272
REMARK  122  A    between atoms: _272  and  _273
REMARK  123  A    between atoms: _276  and  _278
REMARK  124  A    between atoms: _278  and  _279
REMARK  125  A    between atoms: _278  and  _281
REMARK  126  A    between atoms: _281  and  _282
REMARK  127  A    between atoms: _287  and  _289
REMARK  128  A    between atoms: _289  and  _290
REMARK  129  A    between atoms: _289  and  _292
REMARK  130  A    between atoms: _292  and  _293
REMARK  131  A    between atoms: _293  and  _294
REMARK  132  A    between atoms: _297  and  _299
REMARK  133  A    between atoms: _299  and  _300
REMARK  134  A    between atoms: _299  and  _302
REMARK  135  A    between atoms: _302  and  _303
REMARK  136  A    between atoms: _303  and  _304
REMARK  137  A    between atoms: _304  and  _305
REMARK  138  A    between atoms: _305  and  _306
REMARK  139  A    between atoms: _310  and  _312
REMARK  140  A    between atoms: _312  and  _313
REMARK  141  A    between atoms: _312  and  _315
REMARK  142  A    between atoms: _315  and  _316
REMARK  143  A    between atoms: _319  and  _321
REMARK  144  A    between atoms: _321  and  _322
REMARK  145  A    between atoms: _321  and  _324
REMARK  146  A    between atoms: _327  and  _329
REMARK  147  A    between atoms: _329  and  _330
REMARK  148  A    between atoms: _329  and  _332
REMARK  149  A    between atoms: _332  and  _333
REMARK  150  A    between atoms: _333  and  _334
REMARK  151  A    between atoms: _334  and  _335
REMARK  152  A    between atoms: _335  and  _336
REMARK  153  A    between atoms: _340  and  _342
REMARK  154  A    between atoms: _342  and  _343
REMARK  155  A    between atoms: _342  and  _345
REMARK  156  A    between atoms: _345  and  _346
REMARK  157  A    between atoms: _349  and  _351
REMARK  158  A    between atoms: _351  and  _352
REMARK  159  A    between atoms: _351  and  _354
REMARK  160  A    between atoms: _354  and  _355
REMARK  161  A    between atoms: _355  and  _356
REMARK  162  A    between atoms: _358  and  _360
REMARK  163  A    between atoms: _360  and  _361
REMARK  164  A    between atoms: _360  and  _363
REMARK  165  A    between atoms: _363  and  _364
REMARK  166  A    between atoms: _364  and  _365
REMARK  167  A    between atoms: _367  and  _369
REMARK  168  A    between atoms: _369  and  _370
REMARK  169  A    between atoms: _369  and  _372
REMARK  170  A    between atoms: _372  and  _373
REMARK  171  A    between atoms: _373  and  _374
REMARK  172  A    between atoms: _377  and  _379
REMARK  173  A    between atoms: _379  and  _380
REMARK  174  A    between atoms: _379  and  _382
REMARK  175  A    between atoms: _382  and  _383
REMARK  176  A    between atoms: _388  and  _389
REMARK  177  A    between atoms: _391  and  _393
REMARK  178  A    between atoms: _393  and  _394
REMARK  179  A    between atoms: _398  and  _399
REMARK  180  A    between atoms: _404  and  _406
REMARK  181  A    between atoms: _406  and  _407
REMARK  182  A    between atoms: _409  and  _411
REMARK  183  A    between atoms: _411  and  _412
REMARK  184  A    between atoms: _414  and  _416
REMARK  185  A    between atoms: _416  and  _417
REMARK  186  A    between atoms: _416  and  _419
REMARK  187  A    between atoms: _419  and  _420
REMARK  188  A    between atoms: _420  and  _421
REMARK  189  A    between atoms: _424  and  _426
REMARK  190  A    between atoms: _426  and  _427
REMARK  191  A    between atoms: _426  and  _429
REMARK  192  A    between atoms: _429  and  _430
REMARK  193  A    between atoms: _430  and  _431
REMARK  194  A    between atoms: _433  and  _435
REMARK  195  A    between atoms: _435  and  _436
REMARK  196  A    between atoms: _435  and  _438
REMARK  197  A    between atoms: _438  and  _439
REMARK  198  A    between atoms: _445  and  _447
REMARK  199  A    between atoms: _447  and  _448
REMARK  200  A    between atoms: _447  and  _450
REMARK  201  A    between atoms: _450  and  _451
REMARK  202  A    between atoms: _456  and  _457
REMARK  203  A    between atoms: _459  and  _461
REMARK  204  A    between atoms: _461  and  _462
REMARK  205  A    between atoms: _461  and  _464
REMARK  206  A    between atoms: _464  and  _465
REMARK  207  A    between atoms: _468  and  _470
REMARK  208  A    between atoms: _470  and  _471
REMARK  209  A    between atoms: _470  and  _473
REMARK  210  A    between atoms: _473  and  _474
REMARK  211  A    between atoms: _474  and  _475
REMARK  212  A    between atoms: _475  and  _476
REMARK  213  A    between atoms: _476  and  _477
REMARK  214  A    between atoms: _482  and  _483
REMARK  215  A    between atoms: _488  and  _490
REMARK  216  A    between atoms: _490  and  _491
REMARK  217  A    between atoms: _490  and  _493
REMARK  218  A    between atoms: _493  and  _494
REMARK  219  A    between atoms: _494  and  _495
REMARK  220  A    between atoms: _498  and  _500
REMARK  221  A    between atoms: _500  and  _501
REMARK  222  A    between atoms: _500  and  _503
REMARK  223  A    between atoms: _503  and  _504
REMARK  224  A    between atoms: _509  and  _511
REMARK  225  A    between atoms: _511  and  _512
REMARK  226  A    between atoms: _511  and  _514
REMARK  227  A    between atoms: _514  and  _515
REMARK  228  A    between atoms: _518  and  _520
REMARK  229  A    between atoms: _520  and  _521
REMARK  230  A    between atoms: _520  and  _523
REMARK  231  A    between atoms: _523  and  _524
REMARK  232  A    between atoms: _524  and  _525
REMARK  233  A    between atoms: _527  and  _529
REMARK  234  A    between atoms: _529  and  _530
REMARK  235  A    between atoms: _529  and  _532
REMARK  236  A    between atoms: _532  and  _533
REMARK  237  A    between atoms: _536  and  _538
REMARK  238  A    between atoms: _538  and  _539
REMARK  239  A    between atoms: _538  and  _541
REMARK  240  A    between atoms: _541  and  _542
REMARK  241  A    between atoms: _542  and  _543
REMARK  242  A    between atoms: _543  and  _544
REMARK  243  A    between atoms: _544  and  _545
REMARK  244  A    between atoms: _549  and  _551
REMARK  245  A    between atoms: _551  and  _552
REMARK  246  A    between atoms: _551  and  _554
REMARK  247  A    between atoms: _557  and  _559
REMARK  248  A    between atoms: _559  and  _560
REMARK  249  A    between atoms: _559  and  _562
REMARK  250  A    between atoms: _562  and  _563
REMARK  251  A    between atoms: _566  and  _568
REMARK  252  A    between atoms: _568  and  _569
REMARK  253  A    between atoms: _568  and  _571
REMARK  254  A    between atoms: _571  and  _572
REMARK  255  A    between atoms: _575  and  _577
REMARK  256  A    between atoms: _577  and  _578
REMARK  257  A    between atoms: _577  and  _580
REMARK  258  A    between atoms: _580  and  _581
REMARK  259  A    between atoms: _587  and  _589
REMARK  260  A    between atoms: _589  and  _590
REMARK  261  A    between atoms: _592  and  _594
REMARK  262  A    between atoms: _594  and  _595
REMARK  263  A    between atoms: _594  and  _597
REMARK  264  A    between atoms: _597  and  _598
REMARK  265  A    between atoms: _601  and  _603
REMARK  266  A    between atoms: _603  and  _604
REMARK  267  A    between atoms: _607  and  _609
REMARK  268  A    between atoms: _609  and  _610
REMARK  269  A    between atoms: _609  and  _612
REMARK  270  A    between atoms: _614  and  _616
REMARK  271  A    between atoms: _616  and  _617
REMARK  272  A    between atoms: _619  and  _621
REMARK  273  A    between atoms: _621  and  _622
REMARK  274  A    between atoms: _621  and  _624
REMARK  275  A    between atoms: _624  and  _625
REMARK  276  A    between atoms: _631  and  _633
REMARK  277  A    between atoms: _633  and  _634
REMARK  278  A    between atoms: _633  and  _636
REMARK  279  A    between atoms: _636  and  _637
REMARK  280  A    between atoms: _642  and  _643
REMARK                            x       y       z     vdW  Elec       q    Type
REMARK                         _______ _______ _______ _____ _____    ______ ____
ROOT
ATOM      1  O   HOH     1       7.455  26.659  16.165  0.00  0.00    +0.000 OA
ENDROOT
TORSDOF 0
REMARK  Name = ../refined-set-2016/1xh9/1xh9_pocket.pdb
REMARK  280 active torsions:
REMARK  status: ('A' for Active; 'I' for Inactive)
REMARK    1  A    between atoms: _1  and  _3
REMARK    2  A    between atoms: _3  and  _4
REMARK    3  A    between atoms: _3  and  _6
REMARK    4  A    between atoms: _6  and  _7
REMARK    5  A    between atoms: _10  and  _12
REMARK    6  A    between atoms: _12  and  _13
REMARK    7  A    between atoms: _12  and  _15
REMARK    8  A    between atoms: _15  and  _16
REMARK    9  A    between atoms: _19  and  _21
REMARK   10  A    between atoms: _21  and  _22
REMARK   11  A    between atoms: _24  and  _26
REMARK   12  A    between atoms: _26  and  _27
REMARK   13  A    between atoms: _26  and  _29
REMARK   14  A    between atoms: _29  and  _30
REMARK   15  A    between atoms: _33  and  _35
REMARK   16  A    between atoms: _35  and  _36
REMARK   17  A    between atoms: _38  and  _40
REMARK   18  A    between atoms: _40  and  _41
REMARK   19  A    between atoms: _40  and  _43
REMARK   20  A    between atoms: _43  and  _44
REMARK   21  A    between atoms: _46  and  _48
REMARK   22  A    between atoms: _48  and  _49
REMARK   23  A    between atoms: _48  and  _51
REMARK   24  A    between atoms: _51  and  _52
REMARK   25  A    between atoms: _58  and  _60
REMARK   26  A    between atoms: _60  and  _61
REMARK   27  A    between atoms: _63  and  _65
REMARK   28  A    between atoms: _65  and  _66
REMARK   29  A    between atoms: _65  and  _68
REMARK   30  A    between atoms: _68  and  _69
REMARK   31  A    between atoms: _69  and  _70
REMARK   32  A    between atoms: _70  and  _71
REMARK   33  A    between atoms: _80  and  _82
REMARK   34  A    between atoms: _82  and  _83
REMARK   35  A    between atoms: _82  and  _85
REMARK   36  A    between atoms: _88  and  _90
REMARK   37  A    between atoms: _90  and  _91
REMARK   38  A    between atoms: _90  and  _93
REMARK   39  A    between atoms: _93  and  _94
REMARK   40  A    between atoms: _94  and  _95
REMARK   41  A    between atoms: _97  and  _99
REMARK   42  A    between atoms: _99  and  _100
REMARK   43  A    between atoms: _99  and  _102
REMARK   44  A    between atoms: _102  and  _103
REMARK   45  A    between atoms: _106  and  _108
REMARK   46  A    between atoms: _108  and  _109
REMARK   47  A    between atoms: _108  and  _111
REMARK   48  A    between atoms: _111  and  _112
REMARK   49  A    between atoms: _117  and  _118
REMARK   50  A    between atoms: _120  and  _122
REMARK   51  A    between atoms: _122  and  _123
REMARK   52  A    between atoms: _126  and  _128
REMARK   53  A    between atoms: _128  and  _129
REMARK   54  A    between atoms: _128  and  _131
REMARK   55  A    between atoms: _131  and  _132
REMARK   56  A    between atoms: _132  and  _133
REMARK   57  A    between atoms: _135  and  _137
REMARK   58  A    between atoms: _137  and  _138
REMARK   59  A    between atoms: _137  and  _140
REMARK   60  A    between atoms: _140  and  _141
REMARK   61  A    between atoms: _141  and  _142
REMARK   62  A    between atoms: _142  and  _143
REMARK   63  A    between atoms: _143  and  _144
REMARK   64  A    between atoms: _148  and  _150
REMARK   65  A    between atoms: _150  and  _151
REMARK   66  A    between atoms: _150  and  _153
REMARK   67  A    between atoms: _153  and  _154
REMARK   68  A    between atoms: _157  and  _159
REMARK   69  A    between atoms: _159  and  _160
REMARK   70  A    between atoms: _159  and  _162
REMARK   71  A    between atoms: _162  and  _163
REMARK   72  A    between atoms: _166  and  _168
REMARK   73  A    between atoms: _168  and  _169
REMARK   74  A    between atoms: _168  and  _171
REMARK   75  A    between atoms: _171  and  _172
REMARK   76  A    between atoms: _175  and  _177
REMARK   77  A    between atoms: _177  and  _178
REMARK   78  A    between atoms: _177  and  _180
REMARK   79  A    between atoms: _180  and  _181
REMARK   80  A    between atoms: _181  and  _182
REMARK   81  A    between atoms: _182  and  _183
REMARK   82  A    between atoms: _183  and  _184
REMARK   83  A    between atoms: _188  and  _190
REMARK   84  A    between atoms: _190  and  _191
REMARK   85  A    between atoms: _190  and  _193
REMARK   86  A    between atoms: _196  and  _198
REMARK   87  A    between atoms: _198  and  _199
REMARK   88  A    between atoms: _198  and  _201
REMARK   89  A    between atoms: _201  and  _202
REMARK   90  A    between atoms: _205  and  _207
REMARK   91  A    between atoms: _207  and  _208
REMARK   92  A    between atoms: _207  and  _210
REMARK   93  A    between atoms: _210  and  _211
REMARK   94  A    between atoms: _211  and  _212
REMARK   95  A    between atoms: _212  and  _213
REMARK   96  A    between atoms: _213  and  _214
REMARK   97  A    between atoms: _218  and  _220
REMARK   98  A    between atoms: _220  and  _221
REMARK   99  A    between atoms: _220  and  _223
REMARK  100  A    between atoms: _223  and  _224
REMARK  101  A    between atoms: _224  and  _225
REMARK  102  A    between atoms: _228  and  _230
REMARK  103  A    between atoms: _230  and  _231
REMARK  104  A    between atoms: _230  and  _233
REMARK  105  A    between atoms: _233  and  _234
REMARK  106  A    between atoms: _237  and  _239
REMARK  107  A    between atoms: _239  and  _240
REMARK  108  A    between atoms: _239  and  _242
REMARK  109  A    between atoms: _242  and  _243
REMARK  110  A    between atoms: _243  and  _244
REMARK  111  A    between atoms: _247  and  _249
REMARK  112  A    between atoms: _249  and  _250
REMARK  113  A    between atoms: _249  and  _252
REMARK  114  A    between atoms: _252  and  _253
REMARK  115  A    between atoms: _258  and  _260
REMARK  116  A    between atoms: _260  and  _261
REMARK  117  A    between atoms: _260  and  _263
REMARK  118  A    between atoms: _263  and  _264
REMARK  119  A    between atoms: _267  and  _269
REMARK  120  A    between atoms: _269  and  _270
REMARK  121  A    between atoms: _269  and  _272
REMARK  122  A    between atoms: _272  and  _273
REMARK  123  A    between atoms: _276  and  _278
REMARK  124  A    between atoms: _278  and  _279
REMARK  125  A    between atoms: _278  and  _281
REMARK  126  A    between atoms: _281  and  _282
REMARK  127  A    between atoms: _287  and  _289
REMARK  128  A    between atoms: _289  and  _290
REMARK  129  A    between atoms: _289  and  _292
REMARK  130  A    between atoms: _292  and  _293
REMARK  131  A    between atoms: _293  and  _294
REMARK  132  A    between atoms: _297  and  _299
REMARK  133  A    between atoms: _299  and  _300
REMARK  134  A    between atoms: _299  and  _302
REMARK  135  A    between atoms: _302  and  _303
REMARK  136  A    between atoms: _303  and  _304
REMARK  137  A    between atoms: _304  and  _305
REMARK  138  A    between atoms: _305  and  _306
REMARK  139  A    between atoms: _310  and  _312
REMARK  140  A    between atoms: _312  and  _313
REMARK  141  A    between atoms: _312  and  _315
REMARK  142  A    between atoms: _315  and  _316
REMARK  143  A    between atoms: _319  and  _321
REMARK  144  A    between atoms: _321  and  _322
REMARK  145  A    between atoms: _321  and  _324
REMARK  146  A    between atoms: _327  and  _329
REMARK  147  A    between atoms: _329  and  _330
REMARK  148  A    between atoms: _329  and  _332
REMARK  149  A    between atoms: _332  and  _333
REMARK  150  A    between atoms: _333  and  _334
REMARK  151  A    between atoms: _334  and  _335
REMARK  152  A    between atoms: _335  and  _336
REMARK  153  A    between atoms: _340  and  _342
REMARK  154  A    between atoms: _342  and  _343
REMARK  155  A    between atoms: _342  and  _345
REMARK  156  A    between atoms: _345  and  _346
REMARK  157  A    between atoms: _349  and  _351
REMARK  158  A    between atoms: _351  and  _352
REMARK  159  A    between atoms: _351  and  _354
REMARK  160  A    between atoms: _354  and  _355
REMARK  161  A    between atoms: _355  and  _356
REMARK  162  A    between atoms: _358  and  _360
REMARK  163  A    between atoms: _360  and  _361
REMARK  164  A    between atoms: _360  and  _363
REMARK  165  A    between atoms: _363  and  _364
REMARK  166  A    between atoms: _364  and  _365
REMARK  167  A    between atoms: _367  and  _369
REMARK  168  A    between atoms: _369  and  _370
REMARK  169  A    between atoms: _369  and  _372
REMARK  170  A    between atoms: _372  and  _373
REMARK  171  A    between atoms: _373  and  _374
REMARK  172  A    between atoms: _377  and  _379
REMARK  173  A    between atoms: _379  and  _380
REMARK  174  A    between atoms: _379  and  _382
REMARK  175  A    between atoms: _382  and  _383
REMARK  176  A    between atoms: _388  and  _389
REMARK  177  A    between atoms: _391  and  _393
REMARK  178  A    between atoms: _393  and  _394
REMARK  179  A    between atoms: _398  and  _399
REMARK  180  A    between atoms: _404  and  _406
REMARK  181  A    between atoms: _406  and  _407
REMARK  182  A    between atoms: _409  and  _411
REMARK  183  A    between atoms: _411  and  _412
REMARK  184  A    between atoms: _414  and  _416
REMARK  185  A    between atoms: _416  and  _417
REMARK  186  A    between atoms: _416  and  _419
REMARK  187  A    between atoms: _419  and  _420
REMARK  188  A    between atoms: _420  and  _421
REMARK  189  A    between atoms: _424  and  _426
REMARK  190  A    between atoms: _426  and  _427
REMARK  191  A    between atoms: _426  and  _429
REMARK  192  A    between atoms: _429  and  _430
REMARK  193  A    between atoms: _430  and  _431
REMARK  194  A    between atoms: _433  and  _435
REMARK  195  A    between atoms: _435  and  _436
REMARK  196  A    between atoms: _435  and  _438
REMARK  197  A    between atoms: _438  and  _439
REMARK  198  A    between atoms: _445  and  _447
REMARK  199  A    between atoms: _447  and  _448
REMARK  200  A    between atoms: _447  and  _450
REMARK  201  A    between atoms: _450  and  _451
REMARK  202  A    between atoms: _456  and  _457
REMARK  203  A    between atoms: _459  and  _461
REMARK  204  A    between atoms: _461  and  _462
REMARK  205  A    between atoms: _461  and  _464
REMARK  206  A    between atoms: _464  and  _465
REMARK  207  A    between atoms: _468  and  _470
REMARK  208  A    between atoms: _470  and  _471
REMARK  209  A    between atoms: _470  and  _473
REMARK  210  A    between atoms: _473  and  _474
REMARK  211  A    between atoms: _474  and  _475
REMARK  212  A    between atoms: _475  and  _476
REMARK  213  A    between atoms: _476  and  _477
REMARK  214  A    between atoms: _482  and  _483
REMARK  215  A    between atoms: _488  and  _490
REMARK  216  A    between atoms: _490  and  _491
REMARK  217  A    between atoms: _490  and  _493
REMARK  218  A    between atoms: _493  and  _494
REMARK  219  A    between atoms: _494  and  _495
REMARK  220  A    between atoms: _498  and  _500
REMARK  221  A    between atoms: _500  and  _501
REMARK  222  A    between atoms: _500  and  _503
REMARK  223  A    between atoms: _503  and  _504
REMARK  224  A    between atoms: _509  and  _511
REMARK  225  A    between atoms: _511  and  _512
REMARK  226  A    between atoms: _511  and  _514
REMARK  227  A    between atoms: _514  and  _515
REMARK  228  A    between atoms: _518  and  _520
REMARK  229  A    between atoms: _520  and  _521
REMARK  230  A    between atoms: _520  and  _523
REMARK  231  A    between atoms: _523  and  _524
REMARK  232  A    between atoms: _524  and  _525
REMARK  233  A    between atoms: _527  and  _529
REMARK  234  A    between atoms: _529  and  _530
REMARK  235  A    between atoms: _529  and  _532
REMARK  236  A    between atoms: _532  and  _533
REMARK  237  A    between atoms: _536  and  _538
REMARK  238  A    between atoms: _538  and  _539
REMARK  239  A    between atoms: _538  and  _541
REMARK  240  A    between atoms: _541  and  _542
REMARK  241  A    between atoms: _542  and  _543
REMARK  242  A    between atoms: _543  and  _544
REMARK  243  A    between atoms: _544  and  _545
REMARK  244  A    between atoms: _549  and  _551
REMARK  245  A    between atoms: _551  and  _552
REMARK  246  A    between atoms: _551  and  _554
REMARK  247  A    between atoms: _557  and  _559
REMARK  248  A    between atoms: _559  and  _560
REMARK  249  A    between atoms: _559  and  _562
REMARK  250  A    between atoms: _562  and  _563
REMARK  251  A    between atoms: _566  and  _568
REMARK  252  A    between atoms: _568  and  _569
REMARK  253  A    between atoms: _568  and  _571
REMARK  254  A    between atoms: _571  and  _572
REMARK  255  A    between atoms: _575  and  _577
REMARK  256  A    between atoms: _577  and  _578
REMARK  257  A    between atoms: _577  and  _580
REMARK  258  A    between atoms: _580  and  _581
REMARK  259  A    between atoms: _587  and  _589
REMARK  260  A    between atoms: _589  and  _590
REMARK  261  A    between atoms: _592  and  _594
REMARK  262  A    between atoms: _594  and  _595
REMARK  263  A    between atoms: _594  and  _597
REMARK  264  A    between atoms: _597  and  _598
REMARK  265  A    between atoms: _601  and  _603
REMARK  266  A    between atoms: _603  and  _604
REMARK  267  A    between atoms: _607  and  _609
REMARK  268  A    between atoms: _609  and  _610
REMARK  269  A    between atoms: _609  and  _612
REMARK  270  A    between atoms: _614  and  _616
REMARK  271  A    between atoms: _616  and  _617
REMARK  272  A    between atoms: _619  and  _621
REMARK  273  A    between atoms: _621  and  _622
REMARK  274  A    between atoms: _621  and  _624
REMARK  275  A    between atoms: _624  and  _625
REMARK  276  A    between atoms: _631  and  _633
REMARK  277  A    between atoms: _633  and  _634
REMARK  278  A    between atoms: _633  and  _636
REMARK  279  A    between atoms: _636  and  _637
REMARK  280  A    between atoms: _642  and  _643
REMARK                            x       y       z     vdW  Elec       q    Type
REMARK                         _______ _______ _______ _____ _____    ______ ____
ROOT
ATOM      1  O   HOH     1       8.328  40.340   2.617  0.00  0.00    +0.000 OA
ENDROOT
TORSDOF 0
REMARK  Name = ../refined-set-2016/1xh9/1xh9_pocket.pdb
REMARK  280 active torsions:
REMARK  status: ('A' for Active; 'I' for Inactive)
REMARK    1  A    between atoms: _1  and  _3
REMARK    2  A    between atoms: _3  and  _4
REMARK    3  A    between atoms: _3  and  _6
REMARK    4  A    between atoms: _6  and  _7
REMARK    5  A    between atoms: _10  and  _12
REMARK    6  A    between atoms: _12  and  _13
REMARK    7  A    between atoms: _12  and  _15
REMARK    8  A    between atoms: _15  and  _16
REMARK    9  A    between atoms: _19  and  _21
REMARK   10  A    between atoms: _21  and  _22
REMARK   11  A    between atoms: _24  and  _26
REMARK   12  A    between atoms: _26  and  _27
REMARK   13  A    between atoms: _26  and  _29
REMARK   14  A    between atoms: _29  and  _30
REMARK   15  A    between atoms: _33  and  _35
REMARK   16  A    between atoms: _35  and  _36
REMARK   17  A    between atoms: _38  and  _40
REMARK   18  A    between atoms: _40  and  _41
REMARK   19  A    between atoms: _40  and  _43
REMARK   20  A    between atoms: _43  and  _44
REMARK   21  A    between atoms: _46  and  _48
REMARK   22  A    between atoms: _48  and  _49
REMARK   23  A    between atoms: _48  and  _51
REMARK   24  A    between atoms: _51  and  _52
REMARK   25  A    between atoms: _58  and  _60
REMARK   26  A    between atoms: _60  and  _61
REMARK   27  A    between atoms: _63  and  _65
REMARK   28  A    between atoms: _65  and  _66
REMARK   29  A    between atoms: _65  and  _68
REMARK   30  A    between atoms: _68  and  _69
REMARK   31  A    between atoms: _69  and  _70
REMARK   32  A    between atoms: _70  and  _71
REMARK   33  A    between atoms: _80  and  _82
REMARK   34  A    between atoms: _82  and  _83
REMARK   35  A    between atoms: _82  and  _85
REMARK   36  A    between atoms: _88  and  _90
REMARK   37  A    between atoms: _90  and  _91
REMARK   38  A    between atoms: _90  and  _93
REMARK   39  A    between atoms: _93  and  _94
REMARK   40  A    between atoms: _94  and  _95
REMARK   41  A    between atoms: _97  and  _99
REMARK   42  A    between atoms: _99  and  _100
REMARK   43  A    between atoms: _99  and  _102
REMARK   44  A    between atoms: _102  and  _103
REMARK   45  A    between atoms: _106  and  _108
REMARK   46  A    between atoms: _108  and  _109
REMARK   47  A    between atoms: _108  and  _111
REMARK   48  A    between atoms: _111  and  _112
REMARK   49  A    between atoms: _117  and  _118
REMARK   50  A    between atoms: _120  and  _122
REMARK   51  A    between atoms: _122  and  _123
REMARK   52  A    between atoms: _126  and  _128
REMARK   53  A    between atoms: _128  and  _129
REMARK   54  A    between atoms: _128  and  _131
REMARK   55  A    between atoms: _131  and  _132
REMARK   56  A    between atoms: _132  and  _133
REMARK   57  A    between atoms: _135  and  _137
REMARK   58  A    between atoms: _137  and  _138
REMARK   59  A    between atoms: _137  and  _140
REMARK   60  A    between atoms: _140  and  _141
REMARK   61  A    between atoms: _141  and  _142
REMARK   62  A    between atoms: _142  and  _143
REMARK   63  A    between atoms: _143  and  _144
REMARK   64  A    between atoms: _148  and  _150
REMARK   65  A    between atoms: _150  and  _151
REMARK   66  A    between atoms: _150  and  _153
REMARK   67  A    between atoms: _153  and  _154
REMARK   68  A    between atoms: _157  and  _159
REMARK   69  A    between atoms: _159  and  _160
REMARK   70  A    between atoms: _159  and  _162
REMARK   71  A    between atoms: _162  and  _163
REMARK   72  A    between atoms: _166  and  _168
REMARK   73  A    between atoms: _168  and  _169
REMARK   74  A    between atoms: _168  and  _171
REMARK   75  A    between atoms: _171  and  _172
REMARK   76  A    between atoms: _175  and  _177
REMARK   77  A    between atoms: _177  and  _178
REMARK   78  A    between atoms: _177  and  _180
REMARK   79  A    between atoms: _180  and  _181
REMARK   80  A    between atoms: _181  and  _182
REMARK   81  A    between atoms: _182  and  _183
REMARK   82  A    between atoms: _183  and  _184
REMARK   83  A    between atoms: _188  and  _190
REMARK   84  A    between atoms: _190  and  _191
REMARK   85  A    between atoms: _190  and  _193
REMARK   86  A    between atoms: _196  and  _198
REMARK   87  A    between atoms: _198  and  _199
REMARK   88  A    between atoms: _198  and  _201
REMARK   89  A    between atoms: _201  and  _202
REMARK   90  A    between atoms: _205  and  _207
REMARK   91  A    between atoms: _207  and  _208
REMARK   92  A    between atoms: _207  and  _210
REMARK   93  A    between atoms: _210  and  _211
REMARK   94  A    between atoms: _211  and  _212
REMARK   95  A    between atoms: _212  and  _213
REMARK   96  A    between atoms: _213  and  _214
REMARK   97  A    between atoms: _218  and  _220
REMARK   98  A    between atoms: _220  and  _221
REMARK   99  A    between atoms: _220  and  _223
REMARK  100  A    between atoms: _223  and  _224
REMARK  101  A    between atoms: _224  and  _225
REMARK  102  A    between atoms: _228  and  _230
REMARK  103  A    between atoms: _230  and  _231
REMARK  104  A    between atoms: _230  and  _233
REMARK  105  A    between atoms: _233  and  _234
REMARK  106  A    between atoms: _237  and  _239
REMARK  107  A    between atoms: _239  and  _240
REMARK  108  A    between atoms: _239  and  _242
REMARK  109  A    between atoms: _242  and  _243
REMARK  110  A    between atoms: _243  and  _244
REMARK  111  A    between atoms: _247  and  _249
REMARK  112  A    between atoms: _249  and  _250
REMARK  113  A    between atoms: _249  and  _252
REMARK  114  A    between atoms: _252  and  _253
REMARK  115  A    between atoms: _258  and  _260
REMARK  116  A    between atoms: _260  and  _261
REMARK  117  A    between atoms: _260  and  _263
REMARK  118  A    between atoms: _263  and  _264
REMARK  119  A    between atoms: _267  and  _269
REMARK  120  A    between atoms: _269  and  _270
REMARK  121  A    between atoms: _269  and  _272
REMARK  122  A    between atoms: _272  and  _273
REMARK  123  A    between atoms: _276  and  _278
REMARK  124  A    between atoms: _278  and  _279
REMARK  125  A    between atoms: _278  and  _281
REMARK  126  A    between atoms: _281  and  _282
REMARK  127  A    between atoms: _287  and  _289
REMARK  128  A    between atoms: _289  and  _290
REMARK  129  A    between atoms: _289  and  _292
REMARK  130  A    between atoms: _292  and  _293
REMARK  131  A    between atoms: _293  and  _294
REMARK  132  A    between atoms: _297  and  _299
REMARK  133  A    between atoms: _299  and  _300
REMARK  134  A    between atoms: _299  and  _302
REMARK  135  A    between atoms: _302  and  _303
REMARK  136  A    between atoms: _303  and  _304
REMARK  137  A    between atoms: _304  and  _305
REMARK  138  A    between atoms: _305  and  _306
REMARK  139  A    between atoms: _310  and  _312
REMARK  140  A    between atoms: _312  and  _313
REMARK  141  A    between atoms: _312  and  _315
REMARK  142  A    between atoms: _315  and  _316
REMARK  143  A    between atoms: _319  and  _321
REMARK  144  A    between atoms: _321  and  _322
REMARK  145  A    between atoms: _321  and  _324
REMARK  146  A    between atoms: _327  and  _329
REMARK  147  A    between atoms: _329  and  _330
REMARK  148  A    between atoms: _329  and  _332
REMARK  149  A    between atoms: _332  and  _333
REMARK  150  A    between atoms: _333  and  _334
REMARK  151  A    between atoms: _334  and  _335
REMARK  152  A    between atoms: _335  and  _336
REMARK  153  A    between atoms: _340  and  _342
REMARK  154  A    between atoms: _342  and  _343
REMARK  155  A    between atoms: _342  and  _345
REMARK  156  A    between atoms: _345  and  _346
REMARK  157  A    between atoms: _349  and  _351
REMARK  158  A    between atoms: _351  and  _352
REMARK  159  A    between atoms: _351  and  _354
REMARK  160  A    between atoms: _354  and  _355
REMARK  161  A    between atoms: _355  and  _356
REMARK  162  A    between atoms: _358  and  _360
REMARK  163  A    between atoms: _360  and  _361
REMARK  164  A    between atoms: _360  and  _363
REMARK  165  A    between atoms: _363  and  _364
REMARK  166  A    between atoms: _364  and  _365
REMARK  167  A    between atoms: _367  and  _369
REMARK  168  A    between atoms: _369  and  _370
REMARK  169  A    between atoms: _369  and  _372
REMARK  170  A    between atoms: _372  and  _373
REMARK  171  A    between atoms: _373  and  _374
REMARK  172  A    between atoms: _377  and  _379
REMARK  173  A    between atoms: _379  and  _380
REMARK  174  A    between atoms: _379  and  _382
REMARK  175  A    between atoms: _382  and  _383
REMARK  176  A    between atoms: _388  and  _389
REMARK  177  A    between atoms: _391  and  _393
REMARK  178  A    between atoms: _393  and  _394
REMARK  179  A    between atoms: _398  and  _399
REMARK  180  A    between atoms: _404  and  _406
REMARK  181  A    between atoms: _406  and  _407
REMARK  182  A    between atoms: _409  and  _411
REMARK  183  A    between atoms: _411  and  _412
REMARK  184  A    between atoms: _414  and  _416
REMARK  185  A    between atoms: _416  and  _417
REMARK  186  A    between atoms: _416  and  _419
REMARK  187  A    between atoms: _419  and  _420
REMARK  188  A    between atoms: _420  and  _421
REMARK  189  A    between atoms: _424  and  _426
REMARK  190  A    between atoms: _426  and  _427
REMARK  191  A    between atoms: _426  and  _429
REMARK  192  A    between atoms: _429  and  _430
REMARK  193  A    between atoms: _430  and  _431
REMARK  194  A    between atoms: _433  and  _435
REMARK  195  A    between atoms: _435  and  _436
REMARK  196  A    between atoms: _435  and  _438
REMARK  197  A    between atoms: _438  and  _439
REMARK  198  A    between atoms: _445  and  _447
REMARK  199  A    between atoms: _447  and  _448
REMARK  200  A    between atoms: _447  and  _450
REMARK  201  A    between atoms: _450  and  _451
REMARK  202  A    between atoms: _456  and  _457
REMARK  203  A    between atoms: _459  and  _461
REMARK  204  A    between atoms: _461  and  _462
REMARK  205  A    between atoms: _461  and  _464
REMARK  206  A    between atoms: _464  and  _465
REMARK  207  A    between atoms: _468  and  _470
REMARK  208  A    between atoms: _470  and  _471
REMARK  209  A    between atoms: _470  and  _473
REMARK  210  A    between atoms: _473  and  _474
REMARK  211  A    between atoms: _474  and  _475
REMARK  212  A    between atoms: _475  and  _476
REMARK  213  A    between atoms: _476  and  _477
REMARK  214  A    between atoms: _482  and  _483
REMARK  215  A    between atoms: _488  and  _490
REMARK  216  A    between atoms: _490  and  _491
REMARK  217  A    between atoms: _490  and  _493
REMARK  218  A    between atoms: _493  and  _494
REMARK  219  A    between atoms: _494  and  _495
REMARK  220  A    between atoms: _498  and  _500
REMARK  221  A    between atoms: _500  and  _501
REMARK  222  A    between atoms: _500  and  _503
REMARK  223  A    between atoms: _503  and  _504
REMARK  224  A    between atoms: _509  and  _511
REMARK  225  A    between atoms: _511  and  _512
REMARK  226  A    between atoms: _511  and  _514
REMARK  227  A    between atoms: _514  and  _515
REMARK  228  A    between atoms: _518  and  _520
REMARK  229  A    between atoms: _520  and  _521
REMARK  230  A    between atoms: _520  and  _523
REMARK  231  A    between atoms: _523  and  _524
REMARK  232  A    between atoms: _524  and  _525
REMARK  233  A    between atoms: _527  and  _529
REMARK  234  A    between atoms: _529  and  _530
REMARK  235  A    between atoms: _529  and  _532
REMARK  236  A    between atoms: _532  and  _533
REMARK  237  A    between atoms: _536  and  _538
REMARK  238  A    between atoms: _538  and  _539
REMARK  239  A    between atoms: _538  and  _541
REMARK  240  A    between atoms: _541  and  _542
REMARK  241  A    between atoms: _542  and  _543
REMARK  242  A    between atoms: _543  and  _544
REMARK  243  A    between atoms: _544  and  _545
REMARK  244  A    between atoms: _549  and  _551
REMARK  245  A    between atoms: _551  and  _552
REMARK  246  A    between atoms: _551  and  _554
REMARK  247  A    between atoms: _557  and  _559
REMARK  248  A    between atoms: _559  and  _560
REMARK  249  A    between atoms: _559  and  _562
REMARK  250  A    between atoms: _562  and  _563
REMARK  251  A    between atoms: _566  and  _568
REMARK  252  A    between atoms: _568  and  _569
REMARK  253  A    between atoms: _568  and  _571
REMARK  254  A    between atoms: _571  and  _572
REMARK  255  A    between atoms: _575  and  _577
REMARK  256  A    between atoms: _577  and  _578
REMARK  257  A    between atoms: _577  and  _580
REMARK  258  A    between atoms: _580  and  _581
REMARK  259  A    between atoms: _587  and  _589
REMARK  260  A    between atoms: _589  and  _590
REMARK  261  A    between atoms: _592  and  _594
REMARK  262  A    between atoms: _594  and  _595
REMARK  263  A    between atoms: _594  and  _597
REMARK  264  A    between atoms: _597  and  _598
REMARK  265  A    between atoms: _601  and  _603
REMARK  266  A    between atoms: _603  and  _604
REMARK  267  A    between atoms: _607  and  _609
REMARK  268  A    between atoms: _609  and  _610
REMARK  269  A    between atoms: _609  and  _612
REMARK  270  A    between atoms: _614  and  _616
REMARK  271  A    between atoms: _616  and  _617
REMARK  272  A    between atoms: _619  and  _621
REMARK  273  A    between atoms: _621  and  _622
REMARK  274  A    between atoms: _621  and  _624
REMARK  275  A    between atoms: _624  and  _625
REMARK  276  A    between atoms: _631  and  _633
REMARK  277  A    between atoms: _633  and  _634
REMARK  278  A    between atoms: _633  and  _636
REMARK  279  A    between atoms: _636  and  _637
REMARK  280  A    between atoms: _642  and  _643
REMARK                            x       y       z     vdW  Elec       q    Type
REMARK                         _______ _______ _______ _____ _____    ______ ____
ROOT
ATOM      1  O   HOH     1       8.743  49.128  12.038  0.00  0.00    +0.000 OA
ENDROOT
TORSDOF 0
REMARK  Name = ../refined-set-2016/1xh9/1xh9_pocket.pdb
REMARK  280 active torsions:
REMARK  status: ('A' for Active; 'I' for Inactive)
REMARK    1  A    between atoms: _1  and  _3
REMARK    2  A    between atoms: _3  and  _4
REMARK    3  A    between atoms: _3  and  _6
REMARK    4  A    between atoms: _6  and  _7
REMARK    5  A    between atoms: _10  and  _12
REMARK    6  A    between atoms: _12  and  _13
REMARK    7  A    between atoms: _12  and  _15
REMARK    8  A    between atoms: _15  and  _16
REMARK    9  A    between atoms: _19  and  _21
REMARK   10  A    between atoms: _21  and  _22
REMARK   11  A    between atoms: _24  and  _26
REMARK   12  A    between atoms: _26  and  _27
REMARK   13  A    between atoms: _26  and  _29
REMARK   14  A    between atoms: _29  and  _30
REMARK   15  A    between atoms: _33  and  _35
REMARK   16  A    between atoms: _35  and  _36
REMARK   17  A    between atoms: _38  and  _40
REMARK   18  A    between atoms: _40  and  _41
REMARK   19  A    between atoms: _40  and  _43
REMARK   20  A    between atoms: _43  and  _44
REMARK   21  A    between atoms: _46  and  _48
REMARK   22  A    between atoms: _48  and  _49
REMARK   23  A    between atoms: _48  and  _51
REMARK   24  A    between atoms: _51  and  _52
REMARK   25  A    between atoms: _58  and  _60
REMARK   26  A    between atoms: _60  and  _61
REMARK   27  A    between atoms: _63  and  _65
REMARK   28  A    between atoms: _65  and  _66
REMARK   29  A    between atoms: _65  and  _68
REMARK   30  A    between atoms: _68  and  _69
REMARK   31  A    between atoms: _69  and  _70
REMARK   32  A    between atoms: _70  and  _71
REMARK   33  A    between atoms: _80  and  _82
REMARK   34  A    between atoms: _82  and  _83
REMARK   35  A    between atoms: _82  and  _85
REMARK   36  A    between atoms: _88  and  _90
REMARK   37  A    between atoms: _90  and  _91
REMARK   38  A    between atoms: _90  and  _93
REMARK   39  A    between atoms: _93  and  _94
REMARK   40  A    between atoms: _94  and  _95
REMARK   41  A    between atoms: _97  and  _99
REMARK   42  A    between atoms: _99  and  _100
REMARK   43  A    between atoms: _99  and  _102
REMARK   44  A    between atoms: _102  and  _103
REMARK   45  A    between atoms: _106  and  _108
REMARK   46  A    between atoms: _108  and  _109
REMARK   47  A    between atoms: _108  and  _111
REMARK   48  A    between atoms: _111  and  _112
REMARK   49  A    between atoms: _117  and  _118
REMARK   50  A    between atoms: _120  and  _122
REMARK   51  A    between atoms: _122  and  _123
REMARK   52  A    between atoms: _126  and  _128
REMARK   53  A    between atoms: _128  and  _129
REMARK   54  A    between atoms: _128  and  _131
REMARK   55  A    between atoms: _131  and  _132
REMARK   56  A    between atoms: _132  and  _133
REMARK   57  A    between atoms: _135  and  _137
REMARK   58  A    between atoms: _137  and  _138
REMARK   59  A    between atoms: _137  and  _140
REMARK   60  A    between atoms: _140  and  _141
REMARK   61  A    between atoms: _141  and  _142
REMARK   62  A    between atoms: _142  and  _143
REMARK   63  A    between atoms: _143  and  _144
REMARK   64  A    between atoms: _148  and  _150
REMARK   65  A    between atoms: _150  and  _151
REMARK   66  A    between atoms: _150  and  _153
REMARK   67  A    between atoms: _153  and  _154
REMARK   68  A    between atoms: _157  and  _159
REMARK   69  A    between atoms: _159  and  _160
REMARK   70  A    between atoms: _159  and  _162
REMARK   71  A    between atoms: _162  and  _163
REMARK   72  A    between atoms: _166  and  _168
REMARK   73  A    between atoms: _168  and  _169
REMARK   74  A    between atoms: _168  and  _171
REMARK   75  A    between atoms: _171  and  _172
REMARK   76  A    between atoms: _175  and  _177
REMARK   77  A    between atoms: _177  and  _178
REMARK   78  A    between atoms: _177  and  _180
REMARK   79  A    between atoms: _180  and  _181
REMARK   80  A    between atoms: _181  and  _182
REMARK   81  A    between atoms: _182  and  _183
REMARK   82  A    between atoms: _183  and  _184
REMARK   83  A    between atoms: _188  and  _190
REMARK   84  A    between atoms: _190  and  _191
REMARK   85  A    between atoms: _190  and  _193
REMARK   86  A    between atoms: _196  and  _198
REMARK   87  A    between atoms: _198  and  _199
REMARK   88  A    between atoms: _198  and  _201
REMARK   89  A    between atoms: _201  and  _202
REMARK   90  A    between atoms: _205  and  _207
REMARK   91  A    between atoms: _207  and  _208
REMARK   92  A    between atoms: _207  and  _210
REMARK   93  A    between atoms: _210  and  _211
REMARK   94  A    between atoms: _211  and  _212
REMARK   95  A    between atoms: _212  and  _213
REMARK   96  A    between atoms: _213  and  _214
REMARK   97  A    between atoms: _218  and  _220
REMARK   98  A    between atoms: _220  and  _221
REMARK   99  A    between atoms: _220  and  _223
REMARK  100  A    between atoms: _223  and  _224
REMARK  101  A    between atoms: _224  and  _225
REMARK  102  A    between atoms: _228  and  _230
REMARK  103  A    between atoms: _230  and  _231
REMARK  104  A    between atoms: _230  and  _233
REMARK  105  A    between atoms: _233  and  _234
REMARK  106  A    between atoms: _237  and  _239
REMARK  107  A    between atoms: _239  and  _240
REMARK  108  A    between atoms: _239  and  _242
REMARK  109  A    between atoms: _242  and  _243
REMARK  110  A    between atoms: _243  and  _244
REMARK  111  A    between atoms: _247  and  _249
REMARK  112  A    between atoms: _249  and  _250
REMARK  113  A    between atoms: _249  and  _252
REMARK  114  A    between atoms: _252  and  _253
REMARK  115  A    between atoms: _258  and  _260
REMARK  116  A    between atoms: _260  and  _261
REMARK  117  A    between atoms: _260  and  _263
REMARK  118  A    between atoms: _263  and  _264
REMARK  119  A    between atoms: _267  and  _269
REMARK  120  A    between atoms: _269  and  _270
REMARK  121  A    between atoms: _269  and  _272
REMARK  122  A    between atoms: _272  and  _273
REMARK  123  A    between atoms: _276  and  _278
REMARK  124  A    between atoms: _278  and  _279
REMARK  125  A    between atoms: _278  and  _281
REMARK  126  A    between atoms: _281  and  _282
REMARK  127  A    between atoms: _287  and  _289
REMARK  128  A    between atoms: _289  and  _290
REMARK  129  A    between atoms: _289  and  _292
REMARK  130  A    between atoms: _292  and  _293
REMARK  131  A    between atoms: _293  and  _294
REMARK  132  A    between atoms: _297  and  _299
REMARK  133  A    between atoms: _299  and  _300
REMARK  134  A    between atoms: _299  and  _302
REMARK  135  A    between atoms: _302  and  _303
REMARK  136  A    between atoms: _303  and  _304
REMARK  137  A    between atoms: _304  and  _305
REMARK  138  A    between atoms: _305  and  _306
REMARK  139  A    between atoms: _310  and  _312
REMARK  140  A    between atoms: _312  and  _313
REMARK  141  A    between atoms: _312  and  _315
REMARK  142  A    between atoms: _315  and  _316
REMARK  143  A    between atoms: _319  and  _321
REMARK  144  A    between atoms: _321  and  _322
REMARK  145  A    between atoms: _321  and  _324
REMARK  146  A    between atoms: _327  and  _329
REMARK  147  A    between atoms: _329  and  _330
REMARK  148  A    between atoms: _329  and  _332
REMARK  149  A    between atoms: _332  and  _333
REMARK  150  A    between atoms: _333  and  _334
REMARK  151  A    between atoms: _334  and  _335
REMARK  152  A    between atoms: _335  and  _336
REMARK  153  A    between atoms: _340  and  _342
REMARK  154  A    between atoms: _342  and  _343
REMARK  155  A    between atoms: _342  and  _345
REMARK  156  A    between atoms: _345  and  _346
REMARK  157  A    between atoms: _349  and  _351
REMARK  158  A    between atoms: _351  and  _352
REMARK  159  A    between atoms: _351  and  _354
REMARK  160  A    between atoms: _354  and  _355
REMARK  161  A    between atoms: _355  and  _356
REMARK  162  A    between atoms: _358  and  _360
REMARK  163  A    between atoms: _360  and  _361
REMARK  164  A    between atoms: _360  and  _363
REMARK  165  A    between atoms: _363  and  _364
REMARK  166  A    between atoms: _364  and  _365
REMARK  167  A    between atoms: _367  and  _369
REMARK  168  A    between atoms: _369  and  _370
REMARK  169  A    between atoms: _369  and  _372
REMARK  170  A    between atoms: _372  and  _373
REMARK  171  A    between atoms: _373  and  _374
REMARK  172  A    between atoms: _377  and  _379
REMARK  173  A    between atoms: _379  and  _380
REMARK  174  A    between atoms: _379  and  _382
REMARK  175  A    between atoms: _382  and  _383
REMARK  176  A    between atoms: _388  and  _389
REMARK  177  A    between atoms: _391  and  _393
REMARK  178  A    between atoms: _393  and  _394
REMARK  179  A    between atoms: _398  and  _399
REMARK  180  A    between atoms: _404  and  _406
REMARK  181  A    between atoms: _406  and  _407
REMARK  182  A    between atoms: _409  and  _411
REMARK  183  A    between atoms: _411  and  _412
REMARK  184  A    between atoms: _414  and  _416
REMARK  185  A    between atoms: _416  and  _417
REMARK  186  A    between atoms: _416  and  _419
REMARK  187  A    between atoms: _419  and  _420
REMARK  188  A    between atoms: _420  and  _421
REMARK  189  A    between atoms: _424  and  _426
REMARK  190  A    between atoms: _426  and  _427
REMARK  191  A    between atoms: _426  and  _429
REMARK  192  A    between atoms: _429  and  _430
REMARK  193  A    between atoms: _430  and  _431
REMARK  194  A    between atoms: _433  and  _435
REMARK  195  A    between atoms: _435  and  _436
REMARK  196  A    between atoms: _435  and  _438
REMARK  197  A    between atoms: _438  and  _439
REMARK  198  A    between atoms: _445  and  _447
REMARK  199  A    between atoms: _447  and  _448
REMARK  200  A    between atoms: _447  and  _450
REMARK  201  A    between atoms: _450  and  _451
REMARK  202  A    between atoms: _456  and  _457
REMARK  203  A    between atoms: _459  and  _461
REMARK  204  A    between atoms: _461  and  _462
REMARK  205  A    between atoms: _461  and  _464
REMARK  206  A    between atoms: _464  and  _465
REMARK  207  A    between atoms: _468  and  _470
REMARK  208  A    between atoms: _470  and  _471
REMARK  209  A    between atoms: _470  and  _473
REMARK  210  A    between atoms: _473  and  _474
REMARK  211  A    between atoms: _474  and  _475
REMARK  212  A    between atoms: _475  and  _476
REMARK  213  A    between atoms: _476  and  _477
REMARK  214  A    between atoms: _482  and  _483
REMARK  215  A    between atoms: _488  and  _490
REMARK  216  A    between atoms: _490  and  _491
REMARK  217  A    between atoms: _490  and  _493
REMARK  218  A    between atoms: _493  and  _494
REMARK  219  A    between atoms: _494  and  _495
REMARK  220  A    between atoms: _498  and  _500
REMARK  221  A    between atoms: _500  and  _501
REMARK  222  A    between atoms: _500  and  _503
REMARK  223  A    between atoms: _503  and  _504
REMARK  224  A    between atoms: _509  and  _511
REMARK  225  A    between atoms: _511  and  _512
REMARK  226  A    between atoms: _511  and  _514
REMARK  227  A    between atoms: _514  and  _515
REMARK  228  A    between atoms: _518  and  _520
REMARK  229  A    between atoms: _520  and  _521
REMARK  230  A    between atoms: _520  and  _523
REMARK  231  A    between atoms: _523  and  _524
REMARK  232  A    between atoms: _524  and  _525
REMARK  233  A    between atoms: _527  and  _529
REMARK  234  A    between atoms: _529  and  _530
REMARK  235  A    between atoms: _529  and  _532
REMARK  236  A    between atoms: _532  and  _533
REMARK  237  A    between atoms: _536  and  _538
REMARK  238  A    between atoms: _538  and  _539
REMARK  239  A    between atoms: _538  and  _541
REMARK  240  A    between atoms: _541  and  _542
REMARK  241  A    between atoms: _542  and  _543
REMARK  242  A    between atoms: _543  and  _544
REMARK  243  A    between atoms: _544  and  _545
REMARK  244  A    between atoms: _549  and  _551
REMARK  245  A    between atoms: _551  and  _552
REMARK  246  A    between atoms: _551  and  _554
REMARK  247  A    between atoms: _557  and  _559
REMARK  248  A    between atoms: _559  and  _560
REMARK  249  A    between atoms: _559  and  _562
REMARK  250  A    between atoms: _562  and  _563
REMARK  251  A    between atoms: _566  and  _568
REMARK  252  A    between atoms: _568  and  _569
REMARK  253  A    between atoms: _568  and  _571
REMARK  254  A    between atoms: _571  and  _572
REMARK  255  A    between atoms: _575  and  _577
REMARK  256  A    between atoms: _577  and  _578
REMARK  257  A    between atoms: _577  and  _580
REMARK  258  A    between atoms: _580  and  _581
REMARK  259  A    between atoms: _587  and  _589
REMARK  260  A    between atoms: _589  and  _590
REMARK  261  A    between atoms: _592  and  _594
REMARK  262  A    between atoms: _594  and  _595
REMARK  263  A    between atoms: _594  and  _597
REMARK  264  A    between atoms: _597  and  _598
REMARK  265  A    between atoms: _601  and  _603
REMARK  266  A    between atoms: _603  and  _604
REMARK  267  A    between atoms: _607  and  _609
REMARK  268  A    between atoms: _609  and  _610
REMARK  269  A    between atoms: _609  and  _612
REMARK  270  A    between atoms: _614  and  _616
REMARK  271  A    between atoms: _616  and  _617
REMARK  272  A    between atoms: _619  and  _621
REMARK  273  A    between atoms: _621  and  _622
REMARK  274  A    between atoms: _621  and  _624
REMARK  275  A    between atoms: _624  and  _625
REMARK  276  A    between atoms: _631  and  _633
REMARK  277  A    between atoms: _633  and  _634
REMARK  278  A    between atoms: _633  and  _636
REMARK  279  A    between atoms: _636  and  _637
REMARK  280  A    between atoms: _642  and  _643
REMARK                            x       y       z     vdW  Elec       q    Type
REMARK                         _______ _______ _______ _____ _____    ______ ____
ROOT
ATOM      1  O   HOH     1       7.793  42.369  -0.780  0.00  0.00    +0.000 OA
ENDROOT
TORSDOF 0
REMARK  Name = ../refined-set-2016/1xh9/1xh9_pocket.pdb
REMARK  280 active torsions:
REMARK  status: ('A' for Active; 'I' for Inactive)
REMARK    1  A    between atoms: _1  and  _3
REMARK    2  A    between atoms: _3  and  _4
REMARK    3  A    between atoms: _3  and  _6
REMARK    4  A    between atoms: _6  and  _7
REMARK    5  A    between atoms: _10  and  _12
REMARK    6  A    between atoms: _12  and  _13
REMARK    7  A    between atoms: _12  and  _15
REMARK    8  A    between atoms: _15  and  _16
REMARK    9  A    between atoms: _19  and  _21
REMARK   10  A    between atoms: _21  and  _22
REMARK   11  A    between atoms: _24  and  _26
REMARK   12  A    between atoms: _26  and  _27
REMARK   13  A    between atoms: _26  and  _29
REMARK   14  A    between atoms: _29  and  _30
REMARK   15  A    between atoms: _33  and  _35
REMARK   16  A    between atoms: _35  and  _36
REMARK   17  A    between atoms: _38  and  _40
REMARK   18  A    between atoms: _40  and  _41
REMARK   19  A    between atoms: _40  and  _43
REMARK   20  A    between atoms: _43  and  _44
REMARK   21  A    between atoms: _46  and  _48
REMARK   22  A    between atoms: _48  and  _49
REMARK   23  A    between atoms: _48  and  _51
REMARK   24  A    between atoms: _51  and  _52
REMARK   25  A    between atoms: _58  and  _60
REMARK   26  A    between atoms: _60  and  _61
REMARK   27  A    between atoms: _63  and  _65
REMARK   28  A    between atoms: _65  and  _66
REMARK   29  A    between atoms: _65  and  _68
REMARK   30  A    between atoms: _68  and  _69
REMARK   31  A    between atoms: _69  and  _70
REMARK   32  A    between atoms: _70  and  _71
REMARK   33  A    between atoms: _80  and  _82
REMARK   34  A    between atoms: _82  and  _83
REMARK   35  A    between atoms: _82  and  _85
REMARK   36  A    between atoms: _88  and  _90
REMARK   37  A    between atoms: _90  and  _91
REMARK   38  A    between atoms: _90  and  _93
REMARK   39  A    between atoms: _93  and  _94
REMARK   40  A    between atoms: _94  and  _95
REMARK   41  A    between atoms: _97  and  _99
REMARK   42  A    between atoms: _99  and  _100
REMARK   43  A    between atoms: _99  and  _102
REMARK   44  A    between atoms: _102  and  _103
REMARK   45  A    between atoms: _106  and  _108
REMARK   46  A    between atoms: _108  and  _109
REMARK   47  A    between atoms: _108  and  _111
REMARK   48  A    between atoms: _111  and  _112
REMARK   49  A    between atoms: _117  and  _118
REMARK   50  A    between atoms: _120  and  _122
REMARK   51  A    between atoms: _122  and  _123
REMARK   52  A    between atoms: _126  and  _128
REMARK   53  A    between atoms: _128  and  _129
REMARK   54  A    between atoms: _128  and  _131
REMARK   55  A    between atoms: _131  and  _132
REMARK   56  A    between atoms: _132  and  _133
REMARK   57  A    between atoms: _135  and  _137
REMARK   58  A    between atoms: _137  and  _138
REMARK   59  A    between atoms: _137  and  _140
REMARK   60  A    between atoms: _140  and  _141
REMARK   61  A    between atoms: _141  and  _142
REMARK   62  A    between atoms: _142  and  _143
REMARK   63  A    between atoms: _143  and  _144
REMARK   64  A    between atoms: _148  and  _150
REMARK   65  A    between atoms: _150  and  _151
REMARK   66  A    between atoms: _150  and  _153
REMARK   67  A    between atoms: _153  and  _154
REMARK   68  A    between atoms: _157  and  _159
REMARK   69  A    between atoms: _159  and  _160
REMARK   70  A    between atoms: _159  and  _162
REMARK   71  A    between atoms: _162  and  _163
REMARK   72  A    between atoms: _166  and  _168
REMARK   73  A    between atoms: _168  and  _169
REMARK   74  A    between atoms: _168  and  _171
REMARK   75  A    between atoms: _171  and  _172
REMARK   76  A    between atoms: _175  and  _177
REMARK   77  A    between atoms: _177  and  _178
REMARK   78  A    between atoms: _177  and  _180
REMARK   79  A    between atoms: _180  and  _181
REMARK   80  A    between atoms: _181  and  _182
REMARK   81  A    between atoms: _182  and  _183
REMARK   82  A    between atoms: _183  and  _184
REMARK   83  A    between atoms: _188  and  _190
REMARK   84  A    between atoms: _190  and  _191
REMARK   85  A    between atoms: _190  and  _193
REMARK   86  A    between atoms: _196  and  _198
REMARK   87  A    between atoms: _198  and  _199
REMARK   88  A    between atoms: _198  and  _201
REMARK   89  A    between atoms: _201  and  _202
REMARK   90  A    between atoms: _205  and  _207
REMARK   91  A    between atoms: _207  and  _208
REMARK   92  A    between atoms: _207  and  _210
REMARK   93  A    between atoms: _210  and  _211
REMARK   94  A    between atoms: _211  and  _212
REMARK   95  A    between atoms: _212  and  _213
REMARK   96  A    between atoms: _213  and  _214
REMARK   97  A    between atoms: _218  and  _220
REMARK   98  A    between atoms: _220  and  _221
REMARK   99  A    between atoms: _220  and  _223
REMARK  100  A    between atoms: _223  and  _224
REMARK  101  A    between atoms: _224  and  _225
REMARK  102  A    between atoms: _228  and  _230
REMARK  103  A    between atoms: _230  and  _231
REMARK  104  A    between atoms: _230  and  _233
REMARK  105  A    between atoms: _233  and  _234
REMARK  106  A    between atoms: _237  and  _239
REMARK  107  A    between atoms: _239  and  _240
REMARK  108  A    between atoms: _239  and  _242
REMARK  109  A    between atoms: _242  and  _243
REMARK  110  A    between atoms: _243  and  _244
REMARK  111  A    between atoms: _247  and  _249
REMARK  112  A    between atoms: _249  and  _250
REMARK  113  A    between atoms: _249  and  _252
REMARK  114  A    between atoms: _252  and  _253
REMARK  115  A    between atoms: _258  and  _260
REMARK  116  A    between atoms: _260  and  _261
REMARK  117  A    between atoms: _260  and  _263
REMARK  118  A    between atoms: _263  and  _264
REMARK  119  A    between atoms: _267  and  _269
REMARK  120  A    between atoms: _269  and  _270
REMARK  121  A    between atoms: _269  and  _272
REMARK  122  A    between atoms: _272  and  _273
REMARK  123  A    between atoms: _276  and  _278
REMARK  124  A    between atoms: _278  and  _279
REMARK  125  A    between atoms: _278  and  _281
REMARK  126  A    between atoms: _281  and  _282
REMARK  127  A    between atoms: _287  and  _289
REMARK  128  A    between atoms: _289  and  _290
REMARK  129  A    between atoms: _289  and  _292
REMARK  130  A    between atoms: _292  and  _293
REMARK  131  A    between atoms: _293  and  _294
REMARK  132  A    between atoms: _297  and  _299
REMARK  133  A    between atoms: _299  and  _300
REMARK  134  A    between atoms: _299  and  _302
REMARK  135  A    between atoms: _302  and  _303
REMARK  136  A    between atoms: _303  and  _304
REMARK  137  A    between atoms: _304  and  _305
REMARK  138  A    between atoms: _305  and  _306
REMARK  139  A    between atoms: _310  and  _312
REMARK  140  A    between atoms: _312  and  _313
REMARK  141  A    between atoms: _312  and  _315
REMARK  142  A    between atoms: _315  and  _316
REMARK  143  A    between atoms: _319  and  _321
REMARK  144  A    between atoms: _321  and  _322
REMARK  145  A    between atoms: _321  and  _324
REMARK  146  A    between atoms: _327  and  _329
REMARK  147  A    between atoms: _329  and  _330
REMARK  148  A    between atoms: _329  and  _332
REMARK  149  A    between atoms: _332  and  _333
REMARK  150  A    between atoms: _333  and  _334
REMARK  151  A    between atoms: _334  and  _335
REMARK  152  A    between atoms: _335  and  _336
REMARK  153  A    between atoms: _340  and  _342
REMARK  154  A    between atoms: _342  and  _343
REMARK  155  A    between atoms: _342  and  _345
REMARK  156  A    between atoms: _345  and  _346
REMARK  157  A    between atoms: _349  and  _351
REMARK  158  A    between atoms: _351  and  _352
REMARK  159  A    between atoms: _351  and  _354
REMARK  160  A    between atoms: _354  and  _355
REMARK  161  A    between atoms: _355  and  _356
REMARK  162  A    between atoms: _358  and  _360
REMARK  163  A    between atoms: _360  and  _361
REMARK  164  A    between atoms: _360  and  _363
REMARK  165  A    between atoms: _363  and  _364
REMARK  166  A    between atoms: _364  and  _365
REMARK  167  A    between atoms: _367  and  _369
REMARK  168  A    between atoms: _369  and  _370
REMARK  169  A    between atoms: _369  and  _372
REMARK  170  A    between atoms: _372  and  _373
REMARK  171  A    between atoms: _373  and  _374
REMARK  172  A    between atoms: _377  and  _379
REMARK  173  A    between atoms: _379  and  _380
REMARK  174  A    between atoms: _379  and  _382
REMARK  175  A    between atoms: _382  and  _383
REMARK  176  A    between atoms: _388  and  _389
REMARK  177  A    between atoms: _391  and  _393
REMARK  178  A    between atoms: _393  and  _394
REMARK  179  A    between atoms: _398  and  _399
REMARK  180  A    between atoms: _404  and  _406
REMARK  181  A    between atoms: _406  and  _407
REMARK  182  A    between atoms: _409  and  _411
REMARK  183  A    between atoms: _411  and  _412
REMARK  184  A    between atoms: _414  and  _416
REMARK  185  A    between atoms: _416  and  _417
REMARK  186  A    between atoms: _416  and  _419
REMARK  187  A    between atoms: _419  and  _420
REMARK  188  A    between atoms: _420  and  _421
REMARK  189  A    between atoms: _424  and  _426
REMARK  190  A    between atoms: _426  and  _427
REMARK  191  A    between atoms: _426  and  _429
REMARK  192  A    between atoms: _429  and  _430
REMARK  193  A    between atoms: _430  and  _431
REMARK  194  A    between atoms: _433  and  _435
REMARK  195  A    between atoms: _435  and  _436
REMARK  196  A    between atoms: _435  and  _438
REMARK  197  A    between atoms: _438  and  _439
REMARK  198  A    between atoms: _445  and  _447
REMARK  199  A    between atoms: _447  and  _448
REMARK  200  A    between atoms: _447  and  _450
REMARK  201  A    between atoms: _450  and  _451
REMARK  202  A    between atoms: _456  and  _457
REMARK  203  A    between atoms: _459  and  _461
REMARK  204  A    between atoms: _461  and  _462
REMARK  205  A    between atoms: _461  and  _464
REMARK  206  A    between atoms: _464  and  _465
REMARK  207  A    between atoms: _468  and  _470
REMARK  208  A    between atoms: _470  and  _471
REMARK  209  A    between atoms: _470  and  _473
REMARK  210  A    between atoms: _473  and  _474
REMARK  211  A    between atoms: _474  and  _475
REMARK  212  A    between atoms: _475  and  _476
REMARK  213  A    between atoms: _476  and  _477
REMARK  214  A    between atoms: _482  and  _483
REMARK  215  A    between atoms: _488  and  _490
REMARK  216  A    between atoms: _490  and  _491
REMARK  217  A    between atoms: _490  and  _493
REMARK  218  A    between atoms: _493  and  _494
REMARK  219  A    between atoms: _494  and  _495
REMARK  220  A    between atoms: _498  and  _500
REMARK  221  A    between atoms: _500  and  _501
REMARK  222  A    between atoms: _500  and  _503
REMARK  223  A    between atoms: _503  and  _504
REMARK  224  A    between atoms: _509  and  _511
REMARK  225  A    between atoms: _511  and  _512
REMARK  226  A    between atoms: _511  and  _514
REMARK  227  A    between atoms: _514  and  _515
REMARK  228  A    between atoms: _518  and  _520
REMARK  229  A    between atoms: _520  and  _521
REMARK  230  A    between atoms: _520  and  _523
REMARK  231  A    between atoms: _523  and  _524
REMARK  232  A    between atoms: _524  and  _525
REMARK  233  A    between atoms: _527  and  _529
REMARK  234  A    between atoms: _529  and  _530
REMARK  235  A    between atoms: _529  and  _532
REMARK  236  A    between atoms: _532  and  _533
REMARK  237  A    between atoms: _536  and  _538
REMARK  238  A    between atoms: _538  and  _539
REMARK  239  A    between atoms: _538  and  _541
REMARK  240  A    between atoms: _541  and  _542
REMARK  241  A    between atoms: _542  and  _543
REMARK  242  A    between atoms: _543  and  _544
REMARK  243  A    between atoms: _544  and  _545
REMARK  244  A    between atoms: _549  and  _551
REMARK  245  A    between atoms: _551  and  _552
REMARK  246  A    between atoms: _551  and  _554
REMARK  247  A    between atoms: _557  and  _559
REMARK  248  A    between atoms: _559  and  _560
REMARK  249  A    between atoms: _559  and  _562
REMARK  250  A    between atoms: _562  and  _563
REMARK  251  A    between atoms: _566  and  _568
REMARK  252  A    between atoms: _568  and  _569
REMARK  253  A    between atoms: _568  and  _571
REMARK  254  A    between atoms: _571  and  _572
REMARK  255  A    between atoms: _575  and  _577
REMARK  256  A    between atoms: _577  and  _578
REMARK  257  A    between atoms: _577  and  _580
REMARK  258  A    between atoms: _580  and  _581
REMARK  259  A    between atoms: _587  and  _589
REMARK  260  A    between atoms: _589  and  _590
REMARK  261  A    between atoms: _592  and  _594
REMARK  262  A    between atoms: _594  and  _595
REMARK  263  A    between atoms: _594  and  _597
REMARK  264  A    between atoms: _597  and  _598
REMARK  265  A    between atoms: _601  and  _603
REMARK  266  A    between atoms: _603  and  _604
REMARK  267  A    between atoms: _607  and  _609
REMARK  268  A    between atoms: _609  and  _610
REMARK  269  A    between atoms: _609  and  _612
REMARK  270  A    between atoms: _614  and  _616
REMARK  271  A    between atoms: _616  and  _617
REMARK  272  A    between atoms: _619  and  _621
REMARK  273  A    between atoms: _621  and  _622
REMARK  274  A    between atoms: _621  and  _624
REMARK  275  A    between atoms: _624  and  _625
REMARK  276  A    between atoms: _631  and  _633
REMARK  277  A    between atoms: _633  and  _634
REMARK  278  A    between atoms: _633  and  _636
REMARK  279  A    between atoms: _636  and  _637
REMARK  280  A    between atoms: _642  and  _643
REMARK                            x       y       z     vdW  Elec       q    Type
REMARK                         _______ _______ _______ _____ _____    ______ ____
ROOT
ATOM      1  O   HOH     1       9.694  40.069  17.905  0.00  0.00    +0.000 OA
ENDROOT
TORSDOF 0
REMARK  Name = ../refined-set-2016/1xh9/1xh9_pocket.pdb
REMARK  280 active torsions:
REMARK  status: ('A' for Active; 'I' for Inactive)
REMARK    1  A    between atoms: _1  and  _3
REMARK    2  A    between atoms: _3  and  _4
REMARK    3  A    between atoms: _3  and  _6
REMARK    4  A    between atoms: _6  and  _7
REMARK    5  A    between atoms: _10  and  _12
REMARK    6  A    between atoms: _12  and  _13
REMARK    7  A    between atoms: _12  and  _15
REMARK    8  A    between atoms: _15  and  _16
REMARK    9  A    between atoms: _19  and  _21
REMARK   10  A    between atoms: _21  and  _22
REMARK   11  A    between atoms: _24  and  _26
REMARK   12  A    between atoms: _26  and  _27
REMARK   13  A    between atoms: _26  and  _29
REMARK   14  A    between atoms: _29  and  _30
REMARK   15  A    between atoms: _33  and  _35
REMARK   16  A    between atoms: _35  and  _36
REMARK   17  A    between atoms: _38  and  _40
REMARK   18  A    between atoms: _40  and  _41
REMARK   19  A    between atoms: _40  and  _43
REMARK   20  A    between atoms: _43  and  _44
REMARK   21  A    between atoms: _46  and  _48
REMARK   22  A    between atoms: _48  and  _49
REMARK   23  A    between atoms: _48  and  _51
REMARK   24  A    between atoms: _51  and  _52
REMARK   25  A    between atoms: _58  and  _60
REMARK   26  A    between atoms: _60  and  _61
REMARK   27  A    between atoms: _63  and  _65
REMARK   28  A    between atoms: _65  and  _66
REMARK   29  A    between atoms: _65  and  _68
REMARK   30  A    between atoms: _68  and  _69
REMARK   31  A    between atoms: _69  and  _70
REMARK   32  A    between atoms: _70  and  _71
REMARK   33  A    between atoms: _80  and  _82
REMARK   34  A    between atoms: _82  and  _83
REMARK   35  A    between atoms: _82  and  _85
REMARK   36  A    between atoms: _88  and  _90
REMARK   37  A    between atoms: _90  and  _91
REMARK   38  A    between atoms: _90  and  _93
REMARK   39  A    between atoms: _93  and  _94
REMARK   40  A    between atoms: _94  and  _95
REMARK   41  A    between atoms: _97  and  _99
REMARK   42  A    between atoms: _99  and  _100
REMARK   43  A    between atoms: _99  and  _102
REMARK   44  A    between atoms: _102  and  _103
REMARK   45  A    between atoms: _106  and  _108
REMARK   46  A    between atoms: _108  and  _109
REMARK   47  A    between atoms: _108  and  _111
REMARK   48  A    between atoms: _111  and  _112
REMARK   49  A    between atoms: _117  and  _118
REMARK   50  A    between atoms: _120  and  _122
REMARK   51  A    between atoms: _122  and  _123
REMARK   52  A    between atoms: _126  and  _128
REMARK   53  A    between atoms: _128  and  _129
REMARK   54  A    between atoms: _128  and  _131
REMARK   55  A    between atoms: _131  and  _132
REMARK   56  A    between atoms: _132  and  _133
REMARK   57  A    between atoms: _135  and  _137
REMARK   58  A    between atoms: _137  and  _138
REMARK   59  A    between atoms: _137  and  _140
REMARK   60  A    between atoms: _140  and  _141
REMARK   61  A    between atoms: _141  and  _142
REMARK   62  A    between atoms: _142  and  _143
REMARK   63  A    between atoms: _143  and  _144
REMARK   64  A    between atoms: _148  and  _150
REMARK   65  A    between atoms: _150  and  _151
REMARK   66  A    between atoms: _150  and  _153
REMARK   67  A    between atoms: _153  and  _154
REMARK   68  A    between atoms: _157  and  _159
REMARK   69  A    between atoms: _159  and  _160
REMARK   70  A    between atoms: _159  and  _162
REMARK   71  A    between atoms: _162  and  _163
REMARK   72  A    between atoms: _166  and  _168
REMARK   73  A    between atoms: _168  and  _169
REMARK   74  A    between atoms: _168  and  _171
REMARK   75  A    between atoms: _171  and  _172
REMARK   76  A    between atoms: _175  and  _177
REMARK   77  A    between atoms: _177  and  _178
REMARK   78  A    between atoms: _177  and  _180
REMARK   79  A    between atoms: _180  and  _181
REMARK   80  A    between atoms: _181  and  _182
REMARK   81  A    between atoms: _182  and  _183
REMARK   82  A    between atoms: _183  and  _184
REMARK   83  A    between atoms: _188  and  _190
REMARK   84  A    between atoms: _190  and  _191
REMARK   85  A    between atoms: _190  and  _193
REMARK   86  A    between atoms: _196  and  _198
REMARK   87  A    between atoms: _198  and  _199
REMARK   88  A    between atoms: _198  and  _201
REMARK   89  A    between atoms: _201  and  _202
REMARK   90  A    between atoms: _205  and  _207
REMARK   91  A    between atoms: _207  and  _208
REMARK   92  A    between atoms: _207  and  _210
REMARK   93  A    between atoms: _210  and  _211
REMARK   94  A    between atoms: _211  and  _212
REMARK   95  A    between atoms: _212  and  _213
REMARK   96  A    between atoms: _213  and  _214
REMARK   97  A    between atoms: _218  and  _220
REMARK   98  A    between atoms: _220  and  _221
REMARK   99  A    between atoms: _220  and  _223
REMARK  100  A    between atoms: _223  and  _224
REMARK  101  A    between atoms: _224  and  _225
REMARK  102  A    between atoms: _228  and  _230
REMARK  103  A    between atoms: _230  and  _231
REMARK  104  A    between atoms: _230  and  _233
REMARK  105  A    between atoms: _233  and  _234
REMARK  106  A    between atoms: _237  and  _239
REMARK  107  A    between atoms: _239  and  _240
REMARK  108  A    between atoms: _239  and  _242
REMARK  109  A    between atoms: _242  and  _243
REMARK  110  A    between atoms: _243  and  _244
REMARK  111  A    between atoms: _247  and  _249
REMARK  112  A    between atoms: _249  and  _250
REMARK  113  A    between atoms: _249  and  _252
REMARK  114  A    between atoms: _252  and  _253
REMARK  115  A    between atoms: _258  and  _260
REMARK  116  A    between atoms: _260  and  _261
REMARK  117  A    between atoms: _260  and  _263
REMARK  118  A    between atoms: _263  and  _264
REMARK  119  A    between atoms: _267  and  _269
REMARK  120  A    between atoms: _269  and  _270
REMARK  121  A    between atoms: _269  and  _272
REMARK  122  A    between atoms: _272  and  _273
REMARK  123  A    between atoms: _276  and  _278
REMARK  124  A    between atoms: _278  and  _279
REMARK  125  A    between atoms: _278  and  _281
REMARK  126  A    between atoms: _281  and  _282
REMARK  127  A    between atoms: _287  and  _289
REMARK  128  A    between atoms: _289  and  _290
REMARK  129  A    between atoms: _289  and  _292
REMARK  130  A    between atoms: _292  and  _293
REMARK  131  A    between atoms: _293  and  _294
REMARK  132  A    between atoms: _297  and  _299
REMARK  133  A    between atoms: _299  and  _300
REMARK  134  A    between atoms: _299  and  _302
REMARK  135  A    between atoms: _302  and  _303
REMARK  136  A    between atoms: _303  and  _304
REMARK  137  A    between atoms: _304  and  _305
REMARK  138  A    between atoms: _305  and  _306
REMARK  139  A    between atoms: _310  and  _312
REMARK  140  A    between atoms: _312  and  _313
REMARK  141  A    between atoms: _312  and  _315
REMARK  142  A    between atoms: _315  and  _316
REMARK  143  A    between atoms: _319  and  _321
REMARK  144  A    between atoms: _321  and  _322
REMARK  145  A    between atoms: _321  and  _324
REMARK  146  A    between atoms: _327  and  _329
REMARK  147  A    between atoms: _329  and  _330
REMARK  148  A    between atoms: _329  and  _332
REMARK  149  A    between atoms: _332  and  _333
REMARK  150  A    between atoms: _333  and  _334
REMARK  151  A    between atoms: _334  and  _335
REMARK  152  A    between atoms: _335  and  _336
REMARK  153  A    between atoms: _340  and  _342
REMARK  154  A    between atoms: _342  and  _343
REMARK  155  A    between atoms: _342  and  _345
REMARK  156  A    between atoms: _345  and  _346
REMARK  157  A    between atoms: _349  and  _351
REMARK  158  A    between atoms: _351  and  _352
REMARK  159  A    between atoms: _351  and  _354
REMARK  160  A    between atoms: _354  and  _355
REMARK  161  A    between atoms: _355  and  _356
REMARK  162  A    between atoms: _358  and  _360
REMARK  163  A    between atoms: _360  and  _361
REMARK  164  A    between atoms: _360  and  _363
REMARK  165  A    between atoms: _363  and  _364
REMARK  166  A    between atoms: _364  and  _365
REMARK  167  A    between atoms: _367  and  _369
REMARK  168  A    between atoms: _369  and  _370
REMARK  169  A    between atoms: _369  and  _372
REMARK  170  A    between atoms: _372  and  _373
REMARK  171  A    between atoms: _373  and  _374
REMARK  172  A    between atoms: _377  and  _379
REMARK  173  A    between atoms: _379  and  _380
REMARK  174  A    between atoms: _379  and  _382
REMARK  175  A    between atoms: _382  and  _383
REMARK  176  A    between atoms: _388  and  _389
REMARK  177  A    between atoms: _391  and  _393
REMARK  178  A    between atoms: _393  and  _394
REMARK  179  A    between atoms: _398  and  _399
REMARK  180  A    between atoms: _404  and  _406
REMARK  181  A    between atoms: _406  and  _407
REMARK  182  A    between atoms: _409  and  _411
REMARK  183  A    between atoms: _411  and  _412
REMARK  184  A    between atoms: _414  and  _416
REMARK  185  A    between atoms: _416  and  _417
REMARK  186  A    between atoms: _416  and  _419
REMARK  187  A    between atoms: _419  and  _420
REMARK  188  A    between atoms: _420  and  _421
REMARK  189  A    between atoms: _424  and  _426
REMARK  190  A    between atoms: _426  and  _427
REMARK  191  A    between atoms: _426  and  _429
REMARK  192  A    between atoms: _429  and  _430
REMARK  193  A    between atoms: _430  and  _431
REMARK  194  A    between atoms: _433  and  _435
REMARK  195  A    between atoms: _435  and  _436
REMARK  196  A    between atoms: _435  and  _438
REMARK  197  A    between atoms: _438  and  _439
REMARK  198  A    between atoms: _445  and  _447
REMARK  199  A    between atoms: _447  and  _448
REMARK  200  A    between atoms: _447  and  _450
REMARK  201  A    between atoms: _450  and  _451
REMARK  202  A    between atoms: _456  and  _457
REMARK  203  A    between atoms: _459  and  _461
REMARK  204  A    between atoms: _461  and  _462
REMARK  205  A    between atoms: _461  and  _464
REMARK  206  A    between atoms: _464  and  _465
REMARK  207  A    between atoms: _468  and  _470
REMARK  208  A    between atoms: _470  and  _471
REMARK  209  A    between atoms: _470  and  _473
REMARK  210  A    between atoms: _473  and  _474
REMARK  211  A    between atoms: _474  and  _475
REMARK  212  A    between atoms: _475  and  _476
REMARK  213  A    between atoms: _476  and  _477
REMARK  214  A    between atoms: _482  and  _483
REMARK  215  A    between atoms: _488  and  _490
REMARK  216  A    between atoms: _490  and  _491
REMARK  217  A    between atoms: _490  and  _493
REMARK  218  A    between atoms: _493  and  _494
REMARK  219  A    between atoms: _494  and  _495
REMARK  220  A    between atoms: _498  and  _500
REMARK  221  A    between atoms: _500  and  _501
REMARK  222  A    between atoms: _500  and  _503
REMARK  223  A    between atoms: _503  and  _504
REMARK  224  A    between atoms: _509  and  _511
REMARK  225  A    between atoms: _511  and  _512
REMARK  226  A    between atoms: _511  and  _514
REMARK  227  A    between atoms: _514  and  _515
REMARK  228  A    between atoms: _518  and  _520
REMARK  229  A    between atoms: _520  and  _521
REMARK  230  A    between atoms: _520  and  _523
REMARK  231  A    between atoms: _523  and  _524
REMARK  232  A    between atoms: _524  and  _525
REMARK  233  A    between atoms: _527  and  _529
REMARK  234  A    between atoms: _529  and  _530
REMARK  235  A    between atoms: _529  and  _532
REMARK  236  A    between atoms: _532  and  _533
REMARK  237  A    between atoms: _536  and  _538
REMARK  238  A    between atoms: _538  and  _539
REMARK  239  A    between atoms: _538  and  _541
REMARK  240  A    between atoms: _541  and  _542
REMARK  241  A    between atoms: _542  and  _543
REMARK  242  A    between atoms: _543  and  _544
REMARK  243  A    between atoms: _544  and  _545
REMARK  244  A    between atoms: _549  and  _551
REMARK  245  A    between atoms: _551  and  _552
REMARK  246  A    between atoms: _551  and  _554
REMARK  247  A    between atoms: _557  and  _559
REMARK  248  A    between atoms: _559  and  _560
REMARK  249  A    between atoms: _559  and  _562
REMARK  250  A    between atoms: _562  and  _563
REMARK  251  A    between atoms: _566  and  _568
REMARK  252  A    between atoms: _568  and  _569
REMARK  253  A    between atoms: _568  and  _571
REMARK  254  A    between atoms: _571  and  _572
REMARK  255  A    between atoms: _575  and  _577
REMARK  256  A    between atoms: _577  and  _578
REMARK  257  A    between atoms: _577  and  _580
REMARK  258  A    between atoms: _580  and  _581
REMARK  259  A    between atoms: _587  and  _589
REMARK  260  A    between atoms: _589  and  _590
REMARK  261  A    between atoms: _592  and  _594
REMARK  262  A    between atoms: _594  and  _595
REMARK  263  A    between atoms: _594  and  _597
REMARK  264  A    between atoms: _597  and  _598
REMARK  265  A    between atoms: _601  and  _603
REMARK  266  A    between atoms: _603  and  _604
REMARK  267  A    between atoms: _607  and  _609
REMARK  268  A    between atoms: _609  and  _610
REMARK  269  A    between atoms: _609  and  _612
REMARK  270  A    between atoms: _614  and  _616
REMARK  271  A    between atoms: _616  and  _617
REMARK  272  A    between atoms: _619  and  _621
REMARK  273  A    between atoms: _621  and  _622
REMARK  274  A    between atoms: _621  and  _624
REMARK  275  A    between atoms: _624  and  _625
REMARK  276  A    between atoms: _631  and  _633
REMARK  277  A    between atoms: _633  and  _634
REMARK  278  A    between atoms: _633  and  _636
REMARK  279  A    between atoms: _636  and  _637
REMARK  280  A    between atoms: _642  and  _643
REMARK                            x       y       z     vdW  Elec       q    Type
REMARK                         _______ _______ _______ _____ _____    ______ ____
ROOT
ATOM      1  O   HOH     1      10.418  44.623  16.485  0.00  0.00    +0.000 OA
ENDROOT
TORSDOF 0
REMARK  Name = ../refined-set-2016/1xh9/1xh9_pocket.pdb
REMARK  280 active torsions:
REMARK  status: ('A' for Active; 'I' for Inactive)
REMARK    1  A    between atoms: _1  and  _3
REMARK    2  A    between atoms: _3  and  _4
REMARK    3  A    between atoms: _3  and  _6
REMARK    4  A    between atoms: _6  and  _7
REMARK    5  A    between atoms: _10  and  _12
REMARK    6  A    between atoms: _12  and  _13
REMARK    7  A    between atoms: _12  and  _15
REMARK    8  A    between atoms: _15  and  _16
REMARK    9  A    between atoms: _19  and  _21
REMARK   10  A    between atoms: _21  and  _22
REMARK   11  A    between atoms: _24  and  _26
REMARK   12  A    between atoms: _26  and  _27
REMARK   13  A    between atoms: _26  and  _29
REMARK   14  A    between atoms: _29  and  _30
REMARK   15  A    between atoms: _33  and  _35
REMARK   16  A    between atoms: _35  and  _36
REMARK   17  A    between atoms: _38  and  _40
REMARK   18  A    between atoms: _40  and  _41
REMARK   19  A    between atoms: _40  and  _43
REMARK   20  A    between atoms: _43  and  _44
REMARK   21  A    between atoms: _46  and  _48
REMARK   22  A    between atoms: _48  and  _49
REMARK   23  A    between atoms: _48  and  _51
REMARK   24  A    between atoms: _51  and  _52
REMARK   25  A    between atoms: _58  and  _60
REMARK   26  A    between atoms: _60  and  _61
REMARK   27  A    between atoms: _63  and  _65
REMARK   28  A    between atoms: _65  and  _66
REMARK   29  A    between atoms: _65  and  _68
REMARK   30  A    between atoms: _68  and  _69
REMARK   31  A    between atoms: _69  and  _70
REMARK   32  A    between atoms: _70  and  _71
REMARK   33  A    between atoms: _80  and  _82
REMARK   34  A    between atoms: _82  and  _83
REMARK   35  A    between atoms: _82  and  _85
REMARK   36  A    between atoms: _88  and  _90
REMARK   37  A    between atoms: _90  and  _91
REMARK   38  A    between atoms: _90  and  _93
REMARK   39  A    between atoms: _93  and  _94
REMARK   40  A    between atoms: _94  and  _95
REMARK   41  A    between atoms: _97  and  _99
REMARK   42  A    between atoms: _99  and  _100
REMARK   43  A    between atoms: _99  and  _102
REMARK   44  A    between atoms: _102  and  _103
REMARK   45  A    between atoms: _106  and  _108
REMARK   46  A    between atoms: _108  and  _109
REMARK   47  A    between atoms: _108  and  _111
REMARK   48  A    between atoms: _111  and  _112
REMARK   49  A    between atoms: _117  and  _118
REMARK   50  A    between atoms: _120  and  _122
REMARK   51  A    between atoms: _122  and  _123
REMARK   52  A    between atoms: _126  and  _128
REMARK   53  A    between atoms: _128  and  _129
REMARK   54  A    between atoms: _128  and  _131
REMARK   55  A    between atoms: _131  and  _132
REMARK   56  A    between atoms: _132  and  _133
REMARK   57  A    between atoms: _135  and  _137
REMARK   58  A    between atoms: _137  and  _138
REMARK   59  A    between atoms: _137  and  _140
REMARK   60  A    between atoms: _140  and  _141
REMARK   61  A    between atoms: _141  and  _142
REMARK   62  A    between atoms: _142  and  _143
REMARK   63  A    between atoms: _143  and  _144
REMARK   64  A    between atoms: _148  and  _150
REMARK   65  A    between atoms: _150  and  _151
REMARK   66  A    between atoms: _150  and  _153
REMARK   67  A    between atoms: _153  and  _154
REMARK   68  A    between atoms: _157  and  _159
REMARK   69  A    between atoms: _159  and  _160
REMARK   70  A    between atoms: _159  and  _162
REMARK   71  A    between atoms: _162  and  _163
REMARK   72  A    between atoms: _166  and  _168
REMARK   73  A    between atoms: _168  and  _169
REMARK   74  A    between atoms: _168  and  _171
REMARK   75  A    between atoms: _171  and  _172
REMARK   76  A    between atoms: _175  and  _177
REMARK   77  A    between atoms: _177  and  _178
REMARK   78  A    between atoms: _177  and  _180
REMARK   79  A    between atoms: _180  and  _181
REMARK   80  A    between atoms: _181  and  _182
REMARK   81  A    between atoms: _182  and  _183
REMARK   82  A    between atoms: _183  and  _184
REMARK   83  A    between atoms: _188  and  _190
REMARK   84  A    between atoms: _190  and  _191
REMARK   85  A    between atoms: _190  and  _193
REMARK   86  A    between atoms: _196  and  _198
REMARK   87  A    between atoms: _198  and  _199
REMARK   88  A    between atoms: _198  and  _201
REMARK   89  A    between atoms: _201  and  _202
REMARK   90  A    between atoms: _205  and  _207
REMARK   91  A    between atoms: _207  and  _208
REMARK   92  A    between atoms: _207  and  _210
REMARK   93  A    between atoms: _210  and  _211
REMARK   94  A    between atoms: _211  and  _212
REMARK   95  A    between atoms: _212  and  _213
REMARK   96  A    between atoms: _213  and  _214
REMARK   97  A    between atoms: _218  and  _220
REMARK   98  A    between atoms: _220  and  _221
REMARK   99  A    between atoms: _220  and  _223
REMARK  100  A    between atoms: _223  and  _224
REMARK  101  A    between atoms: _224  and  _225
REMARK  102  A    between atoms: _228  and  _230
REMARK  103  A    between atoms: _230  and  _231
REMARK  104  A    between atoms: _230  and  _233
REMARK  105  A    between atoms: _233  and  _234
REMARK  106  A    between atoms: _237  and  _239
REMARK  107  A    between atoms: _239  and  _240
REMARK  108  A    between atoms: _239  and  _242
REMARK  109  A    between atoms: _242  and  _243
REMARK  110  A    between atoms: _243  and  _244
REMARK  111  A    between atoms: _247  and  _249
REMARK  112  A    between atoms: _249  and  _250
REMARK  113  A    between atoms: _249  and  _252
REMARK  114  A    between atoms: _252  and  _253
REMARK  115  A    between atoms: _258  and  _260
REMARK  116  A    between atoms: _260  and  _261
REMARK  117  A    between atoms: _260  and  _263
REMARK  118  A    between atoms: _263  and  _264
REMARK  119  A    between atoms: _267  and  _269
REMARK  120  A    between atoms: _269  and  _270
REMARK  121  A    between atoms: _269  and  _272
REMARK  122  A    between atoms: _272  and  _273
REMARK  123  A    between atoms: _276  and  _278
REMARK  124  A    between atoms: _278  and  _279
REMARK  125  A    between atoms: _278  and  _281
REMARK  126  A    between atoms: _281  and  _282
REMARK  127  A    between atoms: _287  and  _289
REMARK  128  A    between atoms: _289  and  _290
REMARK  129  A    between atoms: _289  and  _292
REMARK  130  A    between atoms: _292  and  _293
REMARK  131  A    between atoms: _293  and  _294
REMARK  132  A    between atoms: _297  and  _299
REMARK  133  A    between atoms: _299  and  _300
REMARK  134  A    between atoms: _299  and  _302
REMARK  135  A    between atoms: _302  and  _303
REMARK  136  A    between atoms: _303  and  _304
REMARK  137  A    between atoms: _304  and  _305
REMARK  138  A    between atoms: _305  and  _306
REMARK  139  A    between atoms: _310  and  _312
REMARK  140  A    between atoms: _312  and  _313
REMARK  141  A    between atoms: _312  and  _315
REMARK  142  A    between atoms: _315  and  _316
REMARK  143  A    between atoms: _319  and  _321
REMARK  144  A    between atoms: _321  and  _322
REMARK  145  A    between atoms: _321  and  _324
REMARK  146  A    between atoms: _327  and  _329
REMARK  147  A    between atoms: _329  and  _330
REMARK  148  A    between atoms: _329  and  _332
REMARK  149  A    between atoms: _332  and  _333
REMARK  150  A    between atoms: _333  and  _334
REMARK  151  A    between atoms: _334  and  _335
REMARK  152  A    between atoms: _335  and  _336
REMARK  153  A    between atoms: _340  and  _342
REMARK  154  A    between atoms: _342  and  _343
REMARK  155  A    between atoms: _342  and  _345
REMARK  156  A    between atoms: _345  and  _346
REMARK  157  A    between atoms: _349  and  _351
REMARK  158  A    between atoms: _351  and  _352
REMARK  159  A    between atoms: _351  and  _354
REMARK  160  A    between atoms: _354  and  _355
REMARK  161  A    between atoms: _355  and  _356
REMARK  162  A    between atoms: _358  and  _360
REMARK  163  A    between atoms: _360  and  _361
REMARK  164  A    between atoms: _360  and  _363
REMARK  165  A    between atoms: _363  and  _364
REMARK  166  A    between atoms: _364  and  _365
REMARK  167  A    between atoms: _367  and  _369
REMARK  168  A    between atoms: _369  and  _370
REMARK  169  A    between atoms: _369  and  _372
REMARK  170  A    between atoms: _372  and  _373
REMARK  171  A    between atoms: _373  and  _374
REMARK  172  A    between atoms: _377  and  _379
REMARK  173  A    between atoms: _379  and  _380
REMARK  174  A    between atoms: _379  and  _382
REMARK  175  A    between atoms: _382  and  _383
REMARK  176  A    between atoms: _388  and  _389
REMARK  177  A    between atoms: _391  and  _393
REMARK  178  A    between atoms: _393  and  _394
REMARK  179  A    between atoms: _398  and  _399
REMARK  180  A    between atoms: _404  and  _406
REMARK  181  A    between atoms: _406  and  _407
REMARK  182  A    between atoms: _409  and  _411
REMARK  183  A    between atoms: _411  and  _412
REMARK  184  A    between atoms: _414  and  _416
REMARK  185  A    between atoms: _416  and  _417
REMARK  186  A    between atoms: _416  and  _419
REMARK  187  A    between atoms: _419  and  _420
REMARK  188  A    between atoms: _420  and  _421
REMARK  189  A    between atoms: _424  and  _426
REMARK  190  A    between atoms: _426  and  _427
REMARK  191  A    between atoms: _426  and  _429
REMARK  192  A    between atoms: _429  and  _430
REMARK  193  A    between atoms: _430  and  _431
REMARK  194  A    between atoms: _433  and  _435
REMARK  195  A    between atoms: _435  and  _436
REMARK  196  A    between atoms: _435  and  _438
REMARK  197  A    between atoms: _438  and  _439
REMARK  198  A    between atoms: _445  and  _447
REMARK  199  A    between atoms: _447  and  _448
REMARK  200  A    between atoms: _447  and  _450
REMARK  201  A    between atoms: _450  and  _451
REMARK  202  A    between atoms: _456  and  _457
REMARK  203  A    between atoms: _459  and  _461
REMARK  204  A    between atoms: _461  and  _462
REMARK  205  A    between atoms: _461  and  _464
REMARK  206  A    between atoms: _464  and  _465
REMARK  207  A    between atoms: _468  and  _470
REMARK  208  A    between atoms: _470  and  _471
REMARK  209  A    between atoms: _470  and  _473
REMARK  210  A    between atoms: _473  and  _474
REMARK  211  A    between atoms: _474  and  _475
REMARK  212  A    between atoms: _475  and  _476
REMARK  213  A    between atoms: _476  and  _477
REMARK  214  A    between atoms: _482  and  _483
REMARK  215  A    between atoms: _488  and  _490
REMARK  216  A    between atoms: _490  and  _491
REMARK  217  A    between atoms: _490  and  _493
REMARK  218  A    between atoms: _493  and  _494
REMARK  219  A    between atoms: _494  and  _495
REMARK  220  A    between atoms: _498  and  _500
REMARK  221  A    between atoms: _500  and  _501
REMARK  222  A    between atoms: _500  and  _503
REMARK  223  A    between atoms: _503  and  _504
REMARK  224  A    between atoms: _509  and  _511
REMARK  225  A    between atoms: _511  and  _512
REMARK  226  A    between atoms: _511  and  _514
REMARK  227  A    between atoms: _514  and  _515
REMARK  228  A    between atoms: _518  and  _520
REMARK  229  A    between atoms: _520  and  _521
REMARK  230  A    between atoms: _520  and  _523
REMARK  231  A    between atoms: _523  and  _524
REMARK  232  A    between atoms: _524  and  _525
REMARK  233  A    between atoms: _527  and  _529
REMARK  234  A    between atoms: _529  and  _530
REMARK  235  A    between atoms: _529  and  _532
REMARK  236  A    between atoms: _532  and  _533
REMARK  237  A    between atoms: _536  and  _538
REMARK  238  A    between atoms: _538  and  _539
REMARK  239  A    between atoms: _538  and  _541
REMARK  240  A    between atoms: _541  and  _542
REMARK  241  A    between atoms: _542  and  _543
REMARK  242  A    between atoms: _543  and  _544
REMARK  243  A    between atoms: _544  and  _545
REMARK  244  A    between atoms: _549  and  _551
REMARK  245  A    between atoms: _551  and  _552
REMARK  246  A    between atoms: _551  and  _554
REMARK  247  A    between atoms: _557  and  _559
REMARK  248  A    between atoms: _559  and  _560
REMARK  249  A    between atoms: _559  and  _562
REMARK  250  A    between atoms: _562  and  _563
REMARK  251  A    between atoms: _566  and  _568
REMARK  252  A    between atoms: _568  and  _569
REMARK  253  A    between atoms: _568  and  _571
REMARK  254  A    between atoms: _571  and  _572
REMARK  255  A    between atoms: _575  and  _577
REMARK  256  A    between atoms: _577  and  _578
REMARK  257  A    between atoms: _577  and  _580
REMARK  258  A    between atoms: _580  and  _581
REMARK  259  A    between atoms: _587  and  _589
REMARK  260  A    between atoms: _589  and  _590
REMARK  261  A    between atoms: _592  and  _594
REMARK  262  A    between atoms: _594  and  _595
REMARK  263  A    between atoms: _594  and  _597
REMARK  264  A    between atoms: _597  and  _598
REMARK  265  A    between atoms: _601  and  _603
REMARK  266  A    between atoms: _603  and  _604
REMARK  267  A    between atoms: _607  and  _609
REMARK  268  A    between atoms: _609  and  _610
REMARK  269  A    between atoms: _609  and  _612
REMARK  270  A    between atoms: _614  and  _616
REMARK  271  A    between atoms: _616  and  _617
REMARK  272  A    between atoms: _619  and  _621
REMARK  273  A    between atoms: _621  and  _622
REMARK  274  A    between atoms: _621  and  _624
REMARK  275  A    between atoms: _624  and  _625
REMARK  276  A    between atoms: _631  and  _633
REMARK  277  A    between atoms: _633  and  _634
REMARK  278  A    between atoms: _633  and  _636
REMARK  279  A    between atoms: _636  and  _637
REMARK  280  A    between atoms: _642  and  _643
REMARK                            x       y       z     vdW  Elec       q    Type
REMARK                         _______ _______ _______ _____ _____    ______ ____
ROOT
ATOM      1  O   HOH     1       9.567  34.278  14.117  0.00  0.00    +0.000 OA
ENDROOT
TORSDOF 0
REMARK  Name = ../refined-set-2016/1xh9/1xh9_pocket.pdb
REMARK  280 active torsions:
REMARK  status: ('A' for Active; 'I' for Inactive)
REMARK    1  A    between atoms: _1  and  _3
REMARK    2  A    between atoms: _3  and  _4
REMARK    3  A    between atoms: _3  and  _6
REMARK    4  A    between atoms: _6  and  _7
REMARK    5  A    between atoms: _10  and  _12
REMARK    6  A    between atoms: _12  and  _13
REMARK    7  A    between atoms: _12  and  _15
REMARK    8  A    between atoms: _15  and  _16
REMARK    9  A    between atoms: _19  and  _21
REMARK   10  A    between atoms: _21  and  _22
REMARK   11  A    between atoms: _24  and  _26
REMARK   12  A    between atoms: _26  and  _27
REMARK   13  A    between atoms: _26  and  _29
REMARK   14  A    between atoms: _29  and  _30
REMARK   15  A    between atoms: _33  and  _35
REMARK   16  A    between atoms: _35  and  _36
REMARK   17  A    between atoms: _38  and  _40
REMARK   18  A    between atoms: _40  and  _41
REMARK   19  A    between atoms: _40  and  _43
REMARK   20  A    between atoms: _43  and  _44
REMARK   21  A    between atoms: _46  and  _48
REMARK   22  A    between atoms: _48  and  _49
REMARK   23  A    between atoms: _48  and  _51
REMARK   24  A    between atoms: _51  and  _52
REMARK   25  A    between atoms: _58  and  _60
REMARK   26  A    between atoms: _60  and  _61
REMARK   27  A    between atoms: _63  and  _65
REMARK   28  A    between atoms: _65  and  _66
REMARK   29  A    between atoms: _65  and  _68
REMARK   30  A    between atoms: _68  and  _69
REMARK   31  A    between atoms: _69  and  _70
REMARK   32  A    between atoms: _70  and  _71
REMARK   33  A    between atoms: _80  and  _82
REMARK   34  A    between atoms: _82  and  _83
REMARK   35  A    between atoms: _82  and  _85
REMARK   36  A    between atoms: _88  and  _90
REMARK   37  A    between atoms: _90  and  _91
REMARK   38  A    between atoms: _90  and  _93
REMARK   39  A    between atoms: _93  and  _94
REMARK   40  A    between atoms: _94  and  _95
REMARK   41  A    between atoms: _97  and  _99
REMARK   42  A    between atoms: _99  and  _100
REMARK   43  A    between atoms: _99  and  _102
REMARK   44  A    between atoms: _102  and  _103
REMARK   45  A    between atoms: _106  and  _108
REMARK   46  A    between atoms: _108  and  _109
REMARK   47  A    between atoms: _108  and  _111
REMARK   48  A    between atoms: _111  and  _112
REMARK   49  A    between atoms: _117  and  _118
REMARK   50  A    between atoms: _120  and  _122
REMARK   51  A    between atoms: _122  and  _123
REMARK   52  A    between atoms: _126  and  _128
REMARK   53  A    between atoms: _128  and  _129
REMARK   54  A    between atoms: _128  and  _131
REMARK   55  A    between atoms: _131  and  _132
REMARK   56  A    between atoms: _132  and  _133
REMARK   57  A    between atoms: _135  and  _137
REMARK   58  A    between atoms: _137  and  _138
REMARK   59  A    between atoms: _137  and  _140
REMARK   60  A    between atoms: _140  and  _141
REMARK   61  A    between atoms: _141  and  _142
REMARK   62  A    between atoms: _142  and  _143
REMARK   63  A    between atoms: _143  and  _144
REMARK   64  A    between atoms: _148  and  _150
REMARK   65  A    between atoms: _150  and  _151
REMARK   66  A    between atoms: _150  and  _153
REMARK   67  A    between atoms: _153  and  _154
REMARK   68  A    between atoms: _157  and  _159
REMARK   69  A    between atoms: _159  and  _160
REMARK   70  A    between atoms: _159  and  _162
REMARK   71  A    between atoms: _162  and  _163
REMARK   72  A    between atoms: _166  and  _168
REMARK   73  A    between atoms: _168  and  _169
REMARK   74  A    between atoms: _168  and  _171
REMARK   75  A    between atoms: _171  and  _172
REMARK   76  A    between atoms: _175  and  _177
REMARK   77  A    between atoms: _177  and  _178
REMARK   78  A    between atoms: _177  and  _180
REMARK   79  A    between atoms: _180  and  _181
REMARK   80  A    between atoms: _181  and  _182
REMARK   81  A    between atoms: _182  and  _183
REMARK   82  A    between atoms: _183  and  _184
REMARK   83  A    between atoms: _188  and  _190
REMARK   84  A    between atoms: _190  and  _191
REMARK   85  A    between atoms: _190  and  _193
REMARK   86  A    between atoms: _196  and  _198
REMARK   87  A    between atoms: _198  and  _199
REMARK   88  A    between atoms: _198  and  _201
REMARK   89  A    between atoms: _201  and  _202
REMARK   90  A    between atoms: _205  and  _207
REMARK   91  A    between atoms: _207  and  _208
REMARK   92  A    between atoms: _207  and  _210
REMARK   93  A    between atoms: _210  and  _211
REMARK   94  A    between atoms: _211  and  _212
REMARK   95  A    between atoms: _212  and  _213
REMARK   96  A    between atoms: _213  and  _214
REMARK   97  A    between atoms: _218  and  _220
REMARK   98  A    between atoms: _220  and  _221
REMARK   99  A    between atoms: _220  and  _223
REMARK  100  A    between atoms: _223  and  _224
REMARK  101  A    between atoms: _224  and  _225
REMARK  102  A    between atoms: _228  and  _230
REMARK  103  A    between atoms: _230  and  _231
REMARK  104  A    between atoms: _230  and  _233
REMARK  105  A    between atoms: _233  and  _234
REMARK  106  A    between atoms: _237  and  _239
REMARK  107  A    between atoms: _239  and  _240
REMARK  108  A    between atoms: _239  and  _242
REMARK  109  A    between atoms: _242  and  _243
REMARK  110  A    between atoms: _243  and  _244
REMARK  111  A    between atoms: _247  and  _249
REMARK  112  A    between atoms: _249  and  _250
REMARK  113  A    between atoms: _249  and  _252
REMARK  114  A    between atoms: _252  and  _253
REMARK  115  A    between atoms: _258  and  _260
REMARK  116  A    between atoms: _260  and  _261
REMARK  117  A    between atoms: _260  and  _263
REMARK  118  A    between atoms: _263  and  _264
REMARK  119  A    between atoms: _267  and  _269
REMARK  120  A    between atoms: _269  and  _270
REMARK  121  A    between atoms: _269  and  _272
REMARK  122  A    between atoms: _272  and  _273
REMARK  123  A    between atoms: _276  and  _278
REMARK  124  A    between atoms: _278  and  _279
REMARK  125  A    between atoms: _278  and  _281
REMARK  126  A    between atoms: _281  and  _282
REMARK  127  A    between atoms: _287  and  _289
REMARK  128  A    between atoms: _289  and  _290
REMARK  129  A    between atoms: _289  and  _292
REMARK  130  A    between atoms: _292  and  _293
REMARK  131  A    between atoms: _293  and  _294
REMARK  132  A    between atoms: _297  and  _299
REMARK  133  A    between atoms: _299  and  _300
REMARK  134  A    between atoms: _299  and  _302
REMARK  135  A    between atoms: _302  and  _303
REMARK  136  A    between atoms: _303  and  _304
REMARK  137  A    between atoms: _304  and  _305
REMARK  138  A    between atoms: _305  and  _306
REMARK  139  A    between atoms: _310  and  _312
REMARK  140  A    between atoms: _312  and  _313
REMARK  141  A    between atoms: _312  and  _315
REMARK  142  A    between atoms: _315  and  _316
REMARK  143  A    between atoms: _319  and  _321
REMARK  144  A    between atoms: _321  and  _322
REMARK  145  A    between atoms: _321  and  _324
REMARK  146  A    between atoms: _327  and  _329
REMARK  147  A    between atoms: _329  and  _330
REMARK  148  A    between atoms: _329  and  _332
REMARK  149  A    between atoms: _332  and  _333
REMARK  150  A    between atoms: _333  and  _334
REMARK  151  A    between atoms: _334  and  _335
REMARK  152  A    between atoms: _335  and  _336
REMARK  153  A    between atoms: _340  and  _342
REMARK  154  A    between atoms: _342  and  _343
REMARK  155  A    between atoms: _342  and  _345
REMARK  156  A    between atoms: _345  and  _346
REMARK  157  A    between atoms: _349  and  _351
REMARK  158  A    between atoms: _351  and  _352
REMARK  159  A    between atoms: _351  and  _354
REMARK  160  A    between atoms: _354  and  _355
REMARK  161  A    between atoms: _355  and  _356
REMARK  162  A    between atoms: _358  and  _360
REMARK  163  A    between atoms: _360  and  _361
REMARK  164  A    between atoms: _360  and  _363
REMARK  165  A    between atoms: _363  and  _364
REMARK  166  A    between atoms: _364  and  _365
REMARK  167  A    between atoms: _367  and  _369
REMARK  168  A    between atoms: _369  and  _370
REMARK  169  A    between atoms: _369  and  _372
REMARK  170  A    between atoms: _372  and  _373
REMARK  171  A    between atoms: _373  and  _374
REMARK  172  A    between atoms: _377  and  _379
REMARK  173  A    between atoms: _379  and  _380
REMARK  174  A    between atoms: _379  and  _382
REMARK  175  A    between atoms: _382  and  _383
REMARK  176  A    between atoms: _388  and  _389
REMARK  177  A    between atoms: _391  and  _393
REMARK  178  A    between atoms: _393  and  _394
REMARK  179  A    between atoms: _398  and  _399
REMARK  180  A    between atoms: _404  and  _406
REMARK  181  A    between atoms: _406  and  _407
REMARK  182  A    between atoms: _409  and  _411
REMARK  183  A    between atoms: _411  and  _412
REMARK  184  A    between atoms: _414  and  _416
REMARK  185  A    between atoms: _416  and  _417
REMARK  186  A    between atoms: _416  and  _419
REMARK  187  A    between atoms: _419  and  _420
REMARK  188  A    between atoms: _420  and  _421
REMARK  189  A    between atoms: _424  and  _426
REMARK  190  A    between atoms: _426  and  _427
REMARK  191  A    between atoms: _426  and  _429
REMARK  192  A    between atoms: _429  and  _430
REMARK  193  A    between atoms: _430  and  _431
REMARK  194  A    between atoms: _433  and  _435
REMARK  195  A    between atoms: _435  and  _436
REMARK  196  A    between atoms: _435  and  _438
REMARK  197  A    between atoms: _438  and  _439
REMARK  198  A    between atoms: _445  and  _447
REMARK  199  A    between atoms: _447  and  _448
REMARK  200  A    between atoms: _447  and  _450
REMARK  201  A    between atoms: _450  and  _451
REMARK  202  A    between atoms: _456  and  _457
REMARK  203  A    between atoms: _459  and  _461
REMARK  204  A    between atoms: _461  and  _462
REMARK  205  A    between atoms: _461  and  _464
REMARK  206  A    between atoms: _464  and  _465
REMARK  207  A    between atoms: _468  and  _470
REMARK  208  A    between atoms: _470  and  _471
REMARK  209  A    between atoms: _470  and  _473
REMARK  210  A    between atoms: _473  and  _474
REMARK  211  A    between atoms: _474  and  _475
REMARK  212  A    between atoms: _475  and  _476
REMARK  213  A    between atoms: _476  and  _477
REMARK  214  A    between atoms: _482  and  _483
REMARK  215  A    between atoms: _488  and  _490
REMARK  216  A    between atoms: _490  and  _491
REMARK  217  A    between atoms: _490  and  _493
REMARK  218  A    between atoms: _493  and  _494
REMARK  219  A    between atoms: _494  and  _495
REMARK  220  A    between atoms: _498  and  _500
REMARK  221  A    between atoms: _500  and  _501
REMARK  222  A    between atoms: _500  and  _503
REMARK  223  A    between atoms: _503  and  _504
REMARK  224  A    between atoms: _509  and  _511
REMARK  225  A    between atoms: _511  and  _512
REMARK  226  A    between atoms: _511  and  _514
REMARK  227  A    between atoms: _514  and  _515
REMARK  228  A    between atoms: _518  and  _520
REMARK  229  A    between atoms: _520  and  _521
REMARK  230  A    between atoms: _520  and  _523
REMARK  231  A    between atoms: _523  and  _524
REMARK  232  A    between atoms: _524  and  _525
REMARK  233  A    between atoms: _527  and  _529
REMARK  234  A    between atoms: _529  and  _530
REMARK  235  A    between atoms: _529  and  _532
REMARK  236  A    between atoms: _532  and  _533
REMARK  237  A    between atoms: _536  and  _538
REMARK  238  A    between atoms: _538  and  _539
REMARK  239  A    between atoms: _538  and  _541
REMARK  240  A    between atoms: _541  and  _542
REMARK  241  A    between atoms: _542  and  _543
REMARK  242  A    between atoms: _543  and  _544
REMARK  243  A    between atoms: _544  and  _545
REMARK  244  A    between atoms: _549  and  _551
REMARK  245  A    between atoms: _551  and  _552
REMARK  246  A    between atoms: _551  and  _554
REMARK  247  A    between atoms: _557  and  _559
REMARK  248  A    between atoms: _559  and  _560
REMARK  249  A    between atoms: _559  and  _562
REMARK  250  A    between atoms: _562  and  _563
REMARK  251  A    between atoms: _566  and  _568
REMARK  252  A    between atoms: _568  and  _569
REMARK  253  A    between atoms: _568  and  _571
REMARK  254  A    between atoms: _571  and  _572
REMARK  255  A    between atoms: _575  and  _577
REMARK  256  A    between atoms: _577  and  _578
REMARK  257  A    between atoms: _577  and  _580
REMARK  258  A    between atoms: _580  and  _581
REMARK  259  A    between atoms: _587  and  _589
REMARK  260  A    between atoms: _589  and  _590
REMARK  261  A    between atoms: _592  and  _594
REMARK  262  A    between atoms: _594  and  _595
REMARK  263  A    between atoms: _594  and  _597
REMARK  264  A    between atoms: _597  and  _598
REMARK  265  A    between atoms: _601  and  _603
REMARK  266  A    between atoms: _603  and  _604
REMARK  267  A    between atoms: _607  and  _609
REMARK  268  A    between atoms: _609  and  _610
REMARK  269  A    between atoms: _609  and  _612
REMARK  270  A    between atoms: _614  and  _616
REMARK  271  A    between atoms: _616  and  _617
REMARK  272  A    between atoms: _619  and  _621
REMARK  273  A    between atoms: _621  and  _622
REMARK  274  A    between atoms: _621  and  _624
REMARK  275  A    between atoms: _624  and  _625
REMARK  276  A    between atoms: _631  and  _633
REMARK  277  A    between atoms: _633  and  _634
REMARK  278  A    between atoms: _633  and  _636
REMARK  279  A    between atoms: _636  and  _637
REMARK  280  A    between atoms: _642  and  _643
REMARK                            x       y       z     vdW  Elec       q    Type
REMARK                         _______ _______ _______ _____ _____    ______ ____
ROOT
ATOM      1  O   HOH     1       7.801  38.133  16.253  0.00  0.00    +0.000 OA
ENDROOT
TORSDOF 0
REMARK  Name = ../refined-set-2016/1xh9/1xh9_pocket.pdb
REMARK  280 active torsions:
REMARK  status: ('A' for Active; 'I' for Inactive)
REMARK    1  A    between atoms: _1  and  _3
REMARK    2  A    between atoms: _3  and  _4
REMARK    3  A    between atoms: _3  and  _6
REMARK    4  A    between atoms: _6  and  _7
REMARK    5  A    between atoms: _10  and  _12
REMARK    6  A    between atoms: _12  and  _13
REMARK    7  A    between atoms: _12  and  _15
REMARK    8  A    between atoms: _15  and  _16
REMARK    9  A    between atoms: _19  and  _21
REMARK   10  A    between atoms: _21  and  _22
REMARK   11  A    between atoms: _24  and  _26
REMARK   12  A    between atoms: _26  and  _27
REMARK   13  A    between atoms: _26  and  _29
REMARK   14  A    between atoms: _29  and  _30
REMARK   15  A    between atoms: _33  and  _35
REMARK   16  A    between atoms: _35  and  _36
REMARK   17  A    between atoms: _38  and  _40
REMARK   18  A    between atoms: _40  and  _41
REMARK   19  A    between atoms: _40  and  _43
REMARK   20  A    between atoms: _43  and  _44
REMARK   21  A    between atoms: _46  and  _48
REMARK   22  A    between atoms: _48  and  _49
REMARK   23  A    between atoms: _48  and  _51
REMARK   24  A    between atoms: _51  and  _52
REMARK   25  A    between atoms: _58  and  _60
REMARK   26  A    between atoms: _60  and  _61
REMARK   27  A    between atoms: _63  and  _65
REMARK   28  A    between atoms: _65  and  _66
REMARK   29  A    between atoms: _65  and  _68
REMARK   30  A    between atoms: _68  and  _69
REMARK   31  A    between atoms: _69  and  _70
REMARK   32  A    between atoms: _70  and  _71
REMARK   33  A    between atoms: _80  and  _82
REMARK   34  A    between atoms: _82  and  _83
REMARK   35  A    between atoms: _82  and  _85
REMARK   36  A    between atoms: _88  and  _90
REMARK   37  A    between atoms: _90  and  _91
REMARK   38  A    between atoms: _90  and  _93
REMARK   39  A    between atoms: _93  and  _94
REMARK   40  A    between atoms: _94  and  _95
REMARK   41  A    between atoms: _97  and  _99
REMARK   42  A    between atoms: _99  and  _100
REMARK   43  A    between atoms: _99  and  _102
REMARK   44  A    between atoms: _102  and  _103
REMARK   45  A    between atoms: _106  and  _108
REMARK   46  A    between atoms: _108  and  _109
REMARK   47  A    between atoms: _108  and  _111
REMARK   48  A    between atoms: _111  and  _112
REMARK   49  A    between atoms: _117  and  _118
REMARK   50  A    between atoms: _120  and  _122
REMARK   51  A    between atoms: _122  and  _123
REMARK   52  A    between atoms: _126  and  _128
REMARK   53  A    between atoms: _128  and  _129
REMARK   54  A    between atoms: _128  and  _131
REMARK   55  A    between atoms: _131  and  _132
REMARK   56  A    between atoms: _132  and  _133
REMARK   57  A    between atoms: _135  and  _137
REMARK   58  A    between atoms: _137  and  _138
REMARK   59  A    between atoms: _137  and  _140
REMARK   60  A    between atoms: _140  and  _141
REMARK   61  A    between atoms: _141  and  _142
REMARK   62  A    between atoms: _142  and  _143
REMARK   63  A    between atoms: _143  and  _144
REMARK   64  A    between atoms: _148  and  _150
REMARK   65  A    between atoms: _150  and  _151
REMARK   66  A    between atoms: _150  and  _153
REMARK   67  A    between atoms: _153  and  _154
REMARK   68  A    between atoms: _157  and  _159
REMARK   69  A    between atoms: _159  and  _160
REMARK   70  A    between atoms: _159  and  _162
REMARK   71  A    between atoms: _162  and  _163
REMARK   72  A    between atoms: _166  and  _168
REMARK   73  A    between atoms: _168  and  _169
REMARK   74  A    between atoms: _168  and  _171
REMARK   75  A    between atoms: _171  and  _172
REMARK   76  A    between atoms: _175  and  _177
REMARK   77  A    between atoms: _177  and  _178
REMARK   78  A    between atoms: _177  and  _180
REMARK   79  A    between atoms: _180  and  _181
REMARK   80  A    between atoms: _181  and  _182
REMARK   81  A    between atoms: _182  and  _183
REMARK   82  A    between atoms: _183  and  _184
REMARK   83  A    between atoms: _188  and  _190
REMARK   84  A    between atoms: _190  and  _191
REMARK   85  A    between atoms: _190  and  _193
REMARK   86  A    between atoms: _196  and  _198
REMARK   87  A    between atoms: _198  and  _199
REMARK   88  A    between atoms: _198  and  _201
REMARK   89  A    between atoms: _201  and  _202
REMARK   90  A    between atoms: _205  and  _207
REMARK   91  A    between atoms: _207  and  _208
REMARK   92  A    between atoms: _207  and  _210
REMARK   93  A    between atoms: _210  and  _211
REMARK   94  A    between atoms: _211  and  _212
REMARK   95  A    between atoms: _212  and  _213
REMARK   96  A    between atoms: _213  and  _214
REMARK   97  A    between atoms: _218  and  _220
REMARK   98  A    between atoms: _220  and  _221
REMARK   99  A    between atoms: _220  and  _223
REMARK  100  A    between atoms: _223  and  _224
REMARK  101  A    between atoms: _224  and  _225
REMARK  102  A    between atoms: _228  and  _230
REMARK  103  A    between atoms: _230  and  _231
REMARK  104  A    between atoms: _230  and  _233
REMARK  105  A    between atoms: _233  and  _234
REMARK  106  A    between atoms: _237  and  _239
REMARK  107  A    between atoms: _239  and  _240
REMARK  108  A    between atoms: _239  and  _242
REMARK  109  A    between atoms: _242  and  _243
REMARK  110  A    between atoms: _243  and  _244
REMARK  111  A    between atoms: _247  and  _249
REMARK  112  A    between atoms: _249  and  _250
REMARK  113  A    between atoms: _249  and  _252
REMARK  114  A    between atoms: _252  and  _253
REMARK  115  A    between atoms: _258  and  _260
REMARK  116  A    between atoms: _260  and  _261
REMARK  117  A    between atoms: _260  and  _263
REMARK  118  A    between atoms: _263  and  _264
REMARK  119  A    between atoms: _267  and  _269
REMARK  120  A    between atoms: _269  and  _270
REMARK  121  A    between atoms: _269  and  _272
REMARK  122  A    between atoms: _272  and  _273
REMARK  123  A    between atoms: _276  and  _278
REMARK  124  A    between atoms: _278  and  _279
REMARK  125  A    between atoms: _278  and  _281
REMARK  126  A    between atoms: _281  and  _282
REMARK  127  A    between atoms: _287  and  _289
REMARK  128  A    between atoms: _289  and  _290
REMARK  129  A    between atoms: _289  and  _292
REMARK  130  A    between atoms: _292  and  _293
REMARK  131  A    between atoms: _293  and  _294
REMARK  132  A    between atoms: _297  and  _299
REMARK  133  A    between atoms: _299  and  _300
REMARK  134  A    between atoms: _299  and  _302
REMARK  135  A    between atoms: _302  and  _303
REMARK  136  A    between atoms: _303  and  _304
REMARK  137  A    between atoms: _304  and  _305
REMARK  138  A    between atoms: _305  and  _306
REMARK  139  A    between atoms: _310  and  _312
REMARK  140  A    between atoms: _312  and  _313
REMARK  141  A    between atoms: _312  and  _315
REMARK  142  A    between atoms: _315  and  _316
REMARK  143  A    between atoms: _319  and  _321
REMARK  144  A    between atoms: _321  and  _322
REMARK  145  A    between atoms: _321  and  _324
REMARK  146  A    between atoms: _327  and  _329
REMARK  147  A    between atoms: _329  and  _330
REMARK  148  A    between atoms: _329  and  _332
REMARK  149  A    between atoms: _332  and  _333
REMARK  150  A    between atoms: _333  and  _334
REMARK  151  A    between atoms: _334  and  _335
REMARK  152  A    between atoms: _335  and  _336
REMARK  153  A    between atoms: _340  and  _342
REMARK  154  A    between atoms: _342  and  _343
REMARK  155  A    between atoms: _342  and  _345
REMARK  156  A    between atoms: _345  and  _346
REMARK  157  A    between atoms: _349  and  _351
REMARK  158  A    between atoms: _351  and  _352
REMARK  159  A    between atoms: _351  and  _354
REMARK  160  A    between atoms: _354  and  _355
REMARK  161  A    between atoms: _355  and  _356
REMARK  162  A    between atoms: _358  and  _360
REMARK  163  A    between atoms: _360  and  _361
REMARK  164  A    between atoms: _360  and  _363
REMARK  165  A    between atoms: _363  and  _364
REMARK  166  A    between atoms: _364  and  _365
REMARK  167  A    between atoms: _367  and  _369
REMARK  168  A    between atoms: _369  and  _370
REMARK  169  A    between atoms: _369  and  _372
REMARK  170  A    between atoms: _372  and  _373
REMARK  171  A    between atoms: _373  and  _374
REMARK  172  A    between atoms: _377  and  _379
REMARK  173  A    between atoms: _379  and  _380
REMARK  174  A    between atoms: _379  and  _382
REMARK  175  A    between atoms: _382  and  _383
REMARK  176  A    between atoms: _388  and  _389
REMARK  177  A    between atoms: _391  and  _393
REMARK  178  A    between atoms: _393  and  _394
REMARK  179  A    between atoms: _398  and  _399
REMARK  180  A    between atoms: _404  and  _406
REMARK  181  A    between atoms: _406  and  _407
REMARK  182  A    between atoms: _409  and  _411
REMARK  183  A    between atoms: _411  and  _412
REMARK  184  A    between atoms: _414  and  _416
REMARK  185  A    between atoms: _416  and  _417
REMARK  186  A    between atoms: _416  and  _419
REMARK  187  A    between atoms: _419  and  _420
REMARK  188  A    between atoms: _420  and  _421
REMARK  189  A    between atoms: _424  and  _426
REMARK  190  A    between atoms: _426  and  _427
REMARK  191  A    between atoms: _426  and  _429
REMARK  192  A    between atoms: _429  and  _430
REMARK  193  A    between atoms: _430  and  _431
REMARK  194  A    between atoms: _433  and  _435
REMARK  195  A    between atoms: _435  and  _436
REMARK  196  A    between atoms: _435  and  _438
REMARK  197  A    between atoms: _438  and  _439
REMARK  198  A    between atoms: _445  and  _447
REMARK  199  A    between atoms: _447  and  _448
REMARK  200  A    between atoms: _447  and  _450
REMARK  201  A    between atoms: _450  and  _451
REMARK  202  A    between atoms: _456  and  _457
REMARK  203  A    between atoms: _459  and  _461
REMARK  204  A    between atoms: _461  and  _462
REMARK  205  A    between atoms: _461  and  _464
REMARK  206  A    between atoms: _464  and  _465
REMARK  207  A    between atoms: _468  and  _470
REMARK  208  A    between atoms: _470  and  _471
REMARK  209  A    between atoms: _470  and  _473
REMARK  210  A    between atoms: _473  and  _474
REMARK  211  A    between atoms: _474  and  _475
REMARK  212  A    between atoms: _475  and  _476
REMARK  213  A    between atoms: _476  and  _477
REMARK  214  A    between atoms: _482  and  _483
REMARK  215  A    between atoms: _488  and  _490
REMARK  216  A    between atoms: _490  and  _491
REMARK  217  A    between atoms: _490  and  _493
REMARK  218  A    between atoms: _493  and  _494
REMARK  219  A    between atoms: _494  and  _495
REMARK  220  A    between atoms: _498  and  _500
REMARK  221  A    between atoms: _500  and  _501
REMARK  222  A    between atoms: _500  and  _503
REMARK  223  A    between atoms: _503  and  _504
REMARK  224  A    between atoms: _509  and  _511
REMARK  225  A    between atoms: _511  and  _512
REMARK  226  A    between atoms: _511  and  _514
REMARK  227  A    between atoms: _514  and  _515
REMARK  228  A    between atoms: _518  and  _520
REMARK  229  A    between atoms: _520  and  _521
REMARK  230  A    between atoms: _520  and  _523
REMARK  231  A    between atoms: _523  and  _524
REMARK  232  A    between atoms: _524  and  _525
REMARK  233  A    between atoms: _527  and  _529
REMARK  234  A    between atoms: _529  and  _530
REMARK  235  A    between atoms: _529  and  _532
REMARK  236  A    between atoms: _532  and  _533
REMARK  237  A    between atoms: _536  and  _538
REMARK  238  A    between atoms: _538  and  _539
REMARK  239  A    between atoms: _538  and  _541
REMARK  240  A    between atoms: _541  and  _542
REMARK  241  A    between atoms: _542  and  _543
REMARK  242  A    between atoms: _543  and  _544
REMARK  243  A    between atoms: _544  and  _545
REMARK  244  A    between atoms: _549  and  _551
REMARK  245  A    between atoms: _551  and  _552
REMARK  246  A    between atoms: _551  and  _554
REMARK  247  A    between atoms: _557  and  _559
REMARK  248  A    between atoms: _559  and  _560
REMARK  249  A    between atoms: _559  and  _562
REMARK  250  A    between atoms: _562  and  _563
REMARK  251  A    between atoms: _566  and  _568
REMARK  252  A    between atoms: _568  and  _569
REMARK  253  A    between atoms: _568  and  _571
REMARK  254  A    between atoms: _571  and  _572
REMARK  255  A    between atoms: _575  and  _577
REMARK  256  A    between atoms: _577  and  _578
REMARK  257  A    between atoms: _577  and  _580
REMARK  258  A    between atoms: _580  and  _581
REMARK  259  A    between atoms: _587  and  _589
REMARK  260  A    between atoms: _589  and  _590
REMARK  261  A    between atoms: _592  and  _594
REMARK  262  A    between atoms: _594  and  _595
REMARK  263  A    between atoms: _594  and  _597
REMARK  264  A    between atoms: _597  and  _598
REMARK  265  A    between atoms: _601  and  _603
REMARK  266  A    between atoms: _603  and  _604
REMARK  267  A    between atoms: _607  and  _609
REMARK  268  A    between atoms: _609  and  _610
REMARK  269  A    between atoms: _609  and  _612
REMARK  270  A    between atoms: _614  and  _616
REMARK  271  A    between atoms: _616  and  _617
REMARK  272  A    between atoms: _619  and  _621
REMARK  273  A    between atoms: _621  and  _622
REMARK  274  A    between atoms: _621  and  _624
REMARK  275  A    between atoms: _624  and  _625
REMARK  276  A    between atoms: _631  and  _633
REMARK  277  A    between atoms: _633  and  _634
REMARK  278  A    between atoms: _633  and  _636
REMARK  279  A    between atoms: _636  and  _637
REMARK  280  A    between atoms: _642  and  _643
REMARK                            x       y       z     vdW  Elec       q    Type
REMARK                         _______ _______ _______ _____ _____    ______ ____
ROOT
ATOM      1  O   HOH     1      10.530  37.489  19.377  0.00  0.00    +0.000 OA
ENDROOT
TORSDOF 0
REMARK  Name = ../refined-set-2016/1xh9/1xh9_pocket.pdb
REMARK  280 active torsions:
REMARK  status: ('A' for Active; 'I' for Inactive)
REMARK    1  A    between atoms: _1  and  _3
REMARK    2  A    between atoms: _3  and  _4
REMARK    3  A    between atoms: _3  and  _6
REMARK    4  A    between atoms: _6  and  _7
REMARK    5  A    between atoms: _10  and  _12
REMARK    6  A    between atoms: _12  and  _13
REMARK    7  A    between atoms: _12  and  _15
REMARK    8  A    between atoms: _15  and  _16
REMARK    9  A    between atoms: _19  and  _21
REMARK   10  A    between atoms: _21  and  _22
REMARK   11  A    between atoms: _24  and  _26
REMARK   12  A    between atoms: _26  and  _27
REMARK   13  A    between atoms: _26  and  _29
REMARK   14  A    between atoms: _29  and  _30
REMARK   15  A    between atoms: _33  and  _35
REMARK   16  A    between atoms: _35  and  _36
REMARK   17  A    between atoms: _38  and  _40
REMARK   18  A    between atoms: _40  and  _41
REMARK   19  A    between atoms: _40  and  _43
REMARK   20  A    between atoms: _43  and  _44
REMARK   21  A    between atoms: _46  and  _48
REMARK   22  A    between atoms: _48  and  _49
REMARK   23  A    between atoms: _48  and  _51
REMARK   24  A    between atoms: _51  and  _52
REMARK   25  A    between atoms: _58  and  _60
REMARK   26  A    between atoms: _60  and  _61
REMARK   27  A    between atoms: _63  and  _65
REMARK   28  A    between atoms: _65  and  _66
REMARK   29  A    between atoms: _65  and  _68
REMARK   30  A    between atoms: _68  and  _69
REMARK   31  A    between atoms: _69  and  _70
REMARK   32  A    between atoms: _70  and  _71
REMARK   33  A    between atoms: _80  and  _82
REMARK   34  A    between atoms: _82  and  _83
REMARK   35  A    between atoms: _82  and  _85
REMARK   36  A    between atoms: _88  and  _90
REMARK   37  A    between atoms: _90  and  _91
REMARK   38  A    between atoms: _90  and  _93
REMARK   39  A    between atoms: _93  and  _94
REMARK   40  A    between atoms: _94  and  _95
REMARK   41  A    between atoms: _97  and  _99
REMARK   42  A    between atoms: _99  and  _100
REMARK   43  A    between atoms: _99  and  _102
REMARK   44  A    between atoms: _102  and  _103
REMARK   45  A    between atoms: _106  and  _108
REMARK   46  A    between atoms: _108  and  _109
REMARK   47  A    between atoms: _108  and  _111
REMARK   48  A    between atoms: _111  and  _112
REMARK   49  A    between atoms: _117  and  _118
REMARK   50  A    between atoms: _120  and  _122
REMARK   51  A    between atoms: _122  and  _123
REMARK   52  A    between atoms: _126  and  _128
REMARK   53  A    between atoms: _128  and  _129
REMARK   54  A    between atoms: _128  and  _131
REMARK   55  A    between atoms: _131  and  _132
REMARK   56  A    between atoms: _132  and  _133
REMARK   57  A    between atoms: _135  and  _137
REMARK   58  A    between atoms: _137  and  _138
REMARK   59  A    between atoms: _137  and  _140
REMARK   60  A    between atoms: _140  and  _141
REMARK   61  A    between atoms: _141  and  _142
REMARK   62  A    between atoms: _142  and  _143
REMARK   63  A    between atoms: _143  and  _144
REMARK   64  A    between atoms: _148  and  _150
REMARK   65  A    between atoms: _150  and  _151
REMARK   66  A    between atoms: _150  and  _153
REMARK   67  A    between atoms: _153  and  _154
REMARK   68  A    between atoms: _157  and  _159
REMARK   69  A    between atoms: _159  and  _160
REMARK   70  A    between atoms: _159  and  _162
REMARK   71  A    between atoms: _162  and  _163
REMARK   72  A    between atoms: _166  and  _168
REMARK   73  A    between atoms: _168  and  _169
REMARK   74  A    between atoms: _168  and  _171
REMARK   75  A    between atoms: _171  and  _172
REMARK   76  A    between atoms: _175  and  _177
REMARK   77  A    between atoms: _177  and  _178
REMARK   78  A    between atoms: _177  and  _180
REMARK   79  A    between atoms: _180  and  _181
REMARK   80  A    between atoms: _181  and  _182
REMARK   81  A    between atoms: _182  and  _183
REMARK   82  A    between atoms: _183  and  _184
REMARK   83  A    between atoms: _188  and  _190
REMARK   84  A    between atoms: _190  and  _191
REMARK   85  A    between atoms: _190  and  _193
REMARK   86  A    between atoms: _196  and  _198
REMARK   87  A    between atoms: _198  and  _199
REMARK   88  A    between atoms: _198  and  _201
REMARK   89  A    between atoms: _201  and  _202
REMARK   90  A    between atoms: _205  and  _207
REMARK   91  A    between atoms: _207  and  _208
REMARK   92  A    between atoms: _207  and  _210
REMARK   93  A    between atoms: _210  and  _211
REMARK   94  A    between atoms: _211  and  _212
REMARK   95  A    between atoms: _212  and  _213
REMARK   96  A    between atoms: _213  and  _214
REMARK   97  A    between atoms: _218  and  _220
REMARK   98  A    between atoms: _220  and  _221
REMARK   99  A    between atoms: _220  and  _223
REMARK  100  A    between atoms: _223  and  _224
REMARK  101  A    between atoms: _224  and  _225
REMARK  102  A    between atoms: _228  and  _230
REMARK  103  A    between atoms: _230  and  _231
REMARK  104  A    between atoms: _230  and  _233
REMARK  105  A    between atoms: _233  and  _234
REMARK  106  A    between atoms: _237  and  _239
REMARK  107  A    between atoms: _239  and  _240
REMARK  108  A    between atoms: _239  and  _242
REMARK  109  A    between atoms: _242  and  _243
REMARK  110  A    between atoms: _243  and  _244
REMARK  111  A    between atoms: _247  and  _249
REMARK  112  A    between atoms: _249  and  _250
REMARK  113  A    between atoms: _249  and  _252
REMARK  114  A    between atoms: _252  and  _253
REMARK  115  A    between atoms: _258  and  _260
REMARK  116  A    between atoms: _260  and  _261
REMARK  117  A    between atoms: _260  and  _263
REMARK  118  A    between atoms: _263  and  _264
REMARK  119  A    between atoms: _267  and  _269
REMARK  120  A    between atoms: _269  and  _270
REMARK  121  A    between atoms: _269  and  _272
REMARK  122  A    between atoms: _272  and  _273
REMARK  123  A    between atoms: _276  and  _278
REMARK  124  A    between atoms: _278  and  _279
REMARK  125  A    between atoms: _278  and  _281
REMARK  126  A    between atoms: _281  and  _282
REMARK  127  A    between atoms: _287  and  _289
REMARK  128  A    between atoms: _289  and  _290
REMARK  129  A    between atoms: _289  and  _292
REMARK  130  A    between atoms: _292  and  _293
REMARK  131  A    between atoms: _293  and  _294
REMARK  132  A    between atoms: _297  and  _299
REMARK  133  A    between atoms: _299  and  _300
REMARK  134  A    between atoms: _299  and  _302
REMARK  135  A    between atoms: _302  and  _303
REMARK  136  A    between atoms: _303  and  _304
REMARK  137  A    between atoms: _304  and  _305
REMARK  138  A    between atoms: _305  and  _306
REMARK  139  A    between atoms: _310  and  _312
REMARK  140  A    between atoms: _312  and  _313
REMARK  141  A    between atoms: _312  and  _315
REMARK  142  A    between atoms: _315  and  _316
REMARK  143  A    between atoms: _319  and  _321
REMARK  144  A    between atoms: _321  and  _322
REMARK  145  A    between atoms: _321  and  _324
REMARK  146  A    between atoms: _327  and  _329
REMARK  147  A    between atoms: _329  and  _330
REMARK  148  A    between atoms: _329  and  _332
REMARK  149  A    between atoms: _332  and  _333
REMARK  150  A    between atoms: _333  and  _334
REMARK  151  A    between atoms: _334  and  _335
REMARK  152  A    between atoms: _335  and  _336
REMARK  153  A    between atoms: _340  and  _342
REMARK  154  A    between atoms: _342  and  _343
REMARK  155  A    between atoms: _342  and  _345
REMARK  156  A    between atoms: _345  and  _346
REMARK  157  A    between atoms: _349  and  _351
REMARK  158  A    between atoms: _351  and  _352
REMARK  159  A    between atoms: _351  and  _354
REMARK  160  A    between atoms: _354  and  _355
REMARK  161  A    between atoms: _355  and  _356
REMARK  162  A    between atoms: _358  and  _360
REMARK  163  A    between atoms: _360  and  _361
REMARK  164  A    between atoms: _360  and  _363
REMARK  165  A    between atoms: _363  and  _364
REMARK  166  A    between atoms: _364  and  _365
REMARK  167  A    between atoms: _367  and  _369
REMARK  168  A    between atoms: _369  and  _370
REMARK  169  A    between atoms: _369  and  _372
REMARK  170  A    between atoms: _372  and  _373
REMARK  171  A    between atoms: _373  and  _374
REMARK  172  A    between atoms: _377  and  _379
REMARK  173  A    between atoms: _379  and  _380
REMARK  174  A    between atoms: _379  and  _382
REMARK  175  A    between atoms: _382  and  _383
REMARK  176  A    between atoms: _388  and  _389
REMARK  177  A    between atoms: _391  and  _393
REMARK  178  A    between atoms: _393  and  _394
REMARK  179  A    between atoms: _398  and  _399
REMARK  180  A    between atoms: _404  and  _406
REMARK  181  A    between atoms: _406  and  _407
REMARK  182  A    between atoms: _409  and  _411
REMARK  183  A    between atoms: _411  and  _412
REMARK  184  A    between atoms: _414  and  _416
REMARK  185  A    between atoms: _416  and  _417
REMARK  186  A    between atoms: _416  and  _419
REMARK  187  A    between atoms: _419  and  _420
REMARK  188  A    between atoms: _420  and  _421
REMARK  189  A    between atoms: _424  and  _426
REMARK  190  A    between atoms: _426  and  _427
REMARK  191  A    between atoms: _426  and  _429
REMARK  192  A    between atoms: _429  and  _430
REMARK  193  A    between atoms: _430  and  _431
REMARK  194  A    between atoms: _433  and  _435
REMARK  195  A    between atoms: _435  and  _436
REMARK  196  A    between atoms: _435  and  _438
REMARK  197  A    between atoms: _438  and  _439
REMARK  198  A    between atoms: _445  and  _447
REMARK  199  A    between atoms: _447  and  _448
REMARK  200  A    between atoms: _447  and  _450
REMARK  201  A    between atoms: _450  and  _451
REMARK  202  A    between atoms: _456  and  _457
REMARK  203  A    between atoms: _459  and  _461
REMARK  204  A    between atoms: _461  and  _462
REMARK  205  A    between atoms: _461  and  _464
REMARK  206  A    between atoms: _464  and  _465
REMARK  207  A    between atoms: _468  and  _470
REMARK  208  A    between atoms: _470  and  _471
REMARK  209  A    between atoms: _470  and  _473
REMARK  210  A    between atoms: _473  and  _474
REMARK  211  A    between atoms: _474  and  _475
REMARK  212  A    between atoms: _475  and  _476
REMARK  213  A    between atoms: _476  and  _477
REMARK  214  A    between atoms: _482  and  _483
REMARK  215  A    between atoms: _488  and  _490
REMARK  216  A    between atoms: _490  and  _491
REMARK  217  A    between atoms: _490  and  _493
REMARK  218  A    between atoms: _493  and  _494
REMARK  219  A    between atoms: _494  and  _495
REMARK  220  A    between atoms: _498  and  _500
REMARK  221  A    between atoms: _500  and  _501
REMARK  222  A    between atoms: _500  and  _503
REMARK  223  A    between atoms: _503  and  _504
REMARK  224  A    between atoms: _509  and  _511
REMARK  225  A    between atoms: _511  and  _512
REMARK  226  A    between atoms: _511  and  _514
REMARK  227  A    between atoms: _514  and  _515
REMARK  228  A    between atoms: _518  and  _520
REMARK  229  A    between atoms: _520  and  _521
REMARK  230  A    between atoms: _520  and  _523
REMARK  231  A    between atoms: _523  and  _524
REMARK  232  A    between atoms: _524  and  _525
REMARK  233  A    between atoms: _527  and  _529
REMARK  234  A    between atoms: _529  and  _530
REMARK  235  A    between atoms: _529  and  _532
REMARK  236  A    between atoms: _532  and  _533
REMARK  237  A    between atoms: _536  and  _538
REMARK  238  A    between atoms: _538  and  _539
REMARK  239  A    between atoms: _538  and  _541
REMARK  240  A    between atoms: _541  and  _542
REMARK  241  A    between atoms: _542  and  _543
REMARK  242  A    between atoms: _543  and  _544
REMARK  243  A    between atoms: _544  and  _545
REMARK  244  A    between atoms: _549  and  _551
REMARK  245  A    between atoms: _551  and  _552
REMARK  246  A    between atoms: _551  and  _554
REMARK  247  A    between atoms: _557  and  _559
REMARK  248  A    between atoms: _559  and  _560
REMARK  249  A    between atoms: _559  and  _562
REMARK  250  A    between atoms: _562  and  _563
REMARK  251  A    between atoms: _566  and  _568
REMARK  252  A    between atoms: _568  and  _569
REMARK  253  A    between atoms: _568  and  _571
REMARK  254  A    between atoms: _571  and  _572
REMARK  255  A    between atoms: _575  and  _577
REMARK  256  A    between atoms: _577  and  _578
REMARK  257  A    between atoms: _577  and  _580
REMARK  258  A    between atoms: _580  and  _581
REMARK  259  A    between atoms: _587  and  _589
REMARK  260  A    between atoms: _589  and  _590
REMARK  261  A    between atoms: _592  and  _594
REMARK  262  A    between atoms: _594  and  _595
REMARK  263  A    between atoms: _594  and  _597
REMARK  264  A    between atoms: _597  and  _598
REMARK  265  A    between atoms: _601  and  _603
REMARK  266  A    between atoms: _603  and  _604
REMARK  267  A    between atoms: _607  and  _609
REMARK  268  A    between atoms: _609  and  _610
REMARK  269  A    between atoms: _609  and  _612
REMARK  270  A    between atoms: _614  and  _616
REMARK  271  A    between atoms: _616  and  _617
REMARK  272  A    between atoms: _619  and  _621
REMARK  273  A    between atoms: _621  and  _622
REMARK  274  A    between atoms: _621  and  _624
REMARK  275  A    between atoms: _624  and  _625
REMARK  276  A    between atoms: _631  and  _633
REMARK  277  A    between atoms: _633  and  _634
REMARK  278  A    between atoms: _633  and  _636
REMARK  279  A    between atoms: _636  and  _637
REMARK  280  A    between atoms: _642  and  _643
REMARK                            x       y       z     vdW  Elec       q    Type
REMARK                         _______ _______ _______ _____ _____    ______ ____
ROOT
ATOM      1  O   HOH     1       8.602  35.071  16.457  0.00  0.00    +0.000 OA
ENDROOT
TORSDOF 0
REMARK  Name = ../refined-set-2016/1xh9/1xh9_pocket.pdb
REMARK  280 active torsions:
REMARK  status: ('A' for Active; 'I' for Inactive)
REMARK    1  A    between atoms: _1  and  _3
REMARK    2  A    between atoms: _3  and  _4
REMARK    3  A    between atoms: _3  and  _6
REMARK    4  A    between atoms: _6  and  _7
REMARK    5  A    between atoms: _10  and  _12
REMARK    6  A    between atoms: _12  and  _13
REMARK    7  A    between atoms: _12  and  _15
REMARK    8  A    between atoms: _15  and  _16
REMARK    9  A    between atoms: _19  and  _21
REMARK   10  A    between atoms: _21  and  _22
REMARK   11  A    between atoms: _24  and  _26
REMARK   12  A    between atoms: _26  and  _27
REMARK   13  A    between atoms: _26  and  _29
REMARK   14  A    between atoms: _29  and  _30
REMARK   15  A    between atoms: _33  and  _35
REMARK   16  A    between atoms: _35  and  _36
REMARK   17  A    between atoms: _38  and  _40
REMARK   18  A    between atoms: _40  and  _41
REMARK   19  A    between atoms: _40  and  _43
REMARK   20  A    between atoms: _43  and  _44
REMARK   21  A    between atoms: _46  and  _48
REMARK   22  A    between atoms: _48  and  _49
REMARK   23  A    between atoms: _48  and  _51
REMARK   24  A    between atoms: _51  and  _52
REMARK   25  A    between atoms: _58  and  _60
REMARK   26  A    between atoms: _60  and  _61
REMARK   27  A    between atoms: _63  and  _65
REMARK   28  A    between atoms: _65  and  _66
REMARK   29  A    between atoms: _65  and  _68
REMARK   30  A    between atoms: _68  and  _69
REMARK   31  A    between atoms: _69  and  _70
REMARK   32  A    between atoms: _70  and  _71
REMARK   33  A    between atoms: _80  and  _82
REMARK   34  A    between atoms: _82  and  _83
REMARK   35  A    between atoms: _82  and  _85
REMARK   36  A    between atoms: _88  and  _90
REMARK   37  A    between atoms: _90  and  _91
REMARK   38  A    between atoms: _90  and  _93
REMARK   39  A    between atoms: _93  and  _94
REMARK   40  A    between atoms: _94  and  _95
REMARK   41  A    between atoms: _97  and  _99
REMARK   42  A    between atoms: _99  and  _100
REMARK   43  A    between atoms: _99  and  _102
REMARK   44  A    between atoms: _102  and  _103
REMARK   45  A    between atoms: _106  and  _108
REMARK   46  A    between atoms: _108  and  _109
REMARK   47  A    between atoms: _108  and  _111
REMARK   48  A    between atoms: _111  and  _112
REMARK   49  A    between atoms: _117  and  _118
REMARK   50  A    between atoms: _120  and  _122
REMARK   51  A    between atoms: _122  and  _123
REMARK   52  A    between atoms: _126  and  _128
REMARK   53  A    between atoms: _128  and  _129
REMARK   54  A    between atoms: _128  and  _131
REMARK   55  A    between atoms: _131  and  _132
REMARK   56  A    between atoms: _132  and  _133
REMARK   57  A    between atoms: _135  and  _137
REMARK   58  A    between atoms: _137  and  _138
REMARK   59  A    between atoms: _137  and  _140
REMARK   60  A    between atoms: _140  and  _141
REMARK   61  A    between atoms: _141  and  _142
REMARK   62  A    between atoms: _142  and  _143
REMARK   63  A    between atoms: _143  and  _144
REMARK   64  A    between atoms: _148  and  _150
REMARK   65  A    between atoms: _150  and  _151
REMARK   66  A    between atoms: _150  and  _153
REMARK   67  A    between atoms: _153  and  _154
REMARK   68  A    between atoms: _157  and  _159
REMARK   69  A    between atoms: _159  and  _160
REMARK   70  A    between atoms: _159  and  _162
REMARK   71  A    between atoms: _162  and  _163
REMARK   72  A    between atoms: _166  and  _168
REMARK   73  A    between atoms: _168  and  _169
REMARK   74  A    between atoms: _168  and  _171
REMARK   75  A    between atoms: _171  and  _172
REMARK   76  A    between atoms: _175  and  _177
REMARK   77  A    between atoms: _177  and  _178
REMARK   78  A    between atoms: _177  and  _180
REMARK   79  A    between atoms: _180  and  _181
REMARK   80  A    between atoms: _181  and  _182
REMARK   81  A    between atoms: _182  and  _183
REMARK   82  A    between atoms: _183  and  _184
REMARK   83  A    between atoms: _188  and  _190
REMARK   84  A    between atoms: _190  and  _191
REMARK   85  A    between atoms: _190  and  _193
REMARK   86  A    between atoms: _196  and  _198
REMARK   87  A    between atoms: _198  and  _199
REMARK   88  A    between atoms: _198  and  _201
REMARK   89  A    between atoms: _201  and  _202
REMARK   90  A    between atoms: _205  and  _207
REMARK   91  A    between atoms: _207  and  _208
REMARK   92  A    between atoms: _207  and  _210
REMARK   93  A    between atoms: _210  and  _211
REMARK   94  A    between atoms: _211  and  _212
REMARK   95  A    between atoms: _212  and  _213
REMARK   96  A    between atoms: _213  and  _214
REMARK   97  A    between atoms: _218  and  _220
REMARK   98  A    between atoms: _220  and  _221
REMARK   99  A    between atoms: _220  and  _223
REMARK  100  A    between atoms: _223  and  _224
REMARK  101  A    between atoms: _224  and  _225
REMARK  102  A    between atoms: _228  and  _230
REMARK  103  A    between atoms: _230  and  _231
REMARK  104  A    between atoms: _230  and  _233
REMARK  105  A    between atoms: _233  and  _234
REMARK  106  A    between atoms: _237  and  _239
REMARK  107  A    between atoms: _239  and  _240
REMARK  108  A    between atoms: _239  and  _242
REMARK  109  A    between atoms: _242  and  _243
REMARK  110  A    between atoms: _243  and  _244
REMARK  111  A    between atoms: _247  and  _249
REMARK  112  A    between atoms: _249  and  _250
REMARK  113  A    between atoms: _249  and  _252
REMARK  114  A    between atoms: _252  and  _253
REMARK  115  A    between atoms: _258  and  _260
REMARK  116  A    between atoms: _260  and  _261
REMARK  117  A    between atoms: _260  and  _263
REMARK  118  A    between atoms: _263  and  _264
REMARK  119  A    between atoms: _267  and  _269
REMARK  120  A    between atoms: _269  and  _270
REMARK  121  A    between atoms: _269  and  _272
REMARK  122  A    between atoms: _272  and  _273
REMARK  123  A    between atoms: _276  and  _278
REMARK  124  A    between atoms: _278  and  _279
REMARK  125  A    between atoms: _278  and  _281
REMARK  126  A    between atoms: _281  and  _282
REMARK  127  A    between atoms: _287  and  _289
REMARK  128  A    between atoms: _289  and  _290
REMARK  129  A    between atoms: _289  and  _292
REMARK  130  A    between atoms: _292  and  _293
REMARK  131  A    between atoms: _293  and  _294
REMARK  132  A    between atoms: _297  and  _299
REMARK  133  A    between atoms: _299  and  _300
REMARK  134  A    between atoms: _299  and  _302
REMARK  135  A    between atoms: _302  and  _303
REMARK  136  A    between atoms: _303  and  _304
REMARK  137  A    between atoms: _304  and  _305
REMARK  138  A    between atoms: _305  and  _306
REMARK  139  A    between atoms: _310  and  _312
REMARK  140  A    between atoms: _312  and  _313
REMARK  141  A    between atoms: _312  and  _315
REMARK  142  A    between atoms: _315  and  _316
REMARK  143  A    between atoms: _319  and  _321
REMARK  144  A    between atoms: _321  and  _322
REMARK  145  A    between atoms: _321  and  _324
REMARK  146  A    between atoms: _327  and  _329
REMARK  147  A    between atoms: _329  and  _330
REMARK  148  A    between atoms: _329  and  _332
REMARK  149  A    between atoms: _332  and  _333
REMARK  150  A    between atoms: _333  and  _334
REMARK  151  A    between atoms: _334  and  _335
REMARK  152  A    between atoms: _335  and  _336
REMARK  153  A    between atoms: _340  and  _342
REMARK  154  A    between atoms: _342  and  _343
REMARK  155  A    between atoms: _342  and  _345
REMARK  156  A    between atoms: _345  and  _346
REMARK  157  A    between atoms: _349  and  _351
REMARK  158  A    between atoms: _351  and  _352
REMARK  159  A    between atoms: _351  and  _354
REMARK  160  A    between atoms: _354  and  _355
REMARK  161  A    between atoms: _355  and  _356
REMARK  162  A    between atoms: _358  and  _360
REMARK  163  A    between atoms: _360  and  _361
REMARK  164  A    between atoms: _360  and  _363
REMARK  165  A    between atoms: _363  and  _364
REMARK  166  A    between atoms: _364  and  _365
REMARK  167  A    between atoms: _367  and  _369
REMARK  168  A    between atoms: _369  and  _370
REMARK  169  A    between atoms: _369  and  _372
REMARK  170  A    between atoms: _372  and  _373
REMARK  171  A    between atoms: _373  and  _374
REMARK  172  A    between atoms: _377  and  _379
REMARK  173  A    between atoms: _379  and  _380
REMARK  174  A    between atoms: _379  and  _382
REMARK  175  A    between atoms: _382  and  _383
REMARK  176  A    between atoms: _388  and  _389
REMARK  177  A    between atoms: _391  and  _393
REMARK  178  A    between atoms: _393  and  _394
REMARK  179  A    between atoms: _398  and  _399
REMARK  180  A    between atoms: _404  and  _406
REMARK  181  A    between atoms: _406  and  _407
REMARK  182  A    between atoms: _409  and  _411
REMARK  183  A    between atoms: _411  and  _412
REMARK  184  A    between atoms: _414  and  _416
REMARK  185  A    between atoms: _416  and  _417
REMARK  186  A    between atoms: _416  and  _419
REMARK  187  A    between atoms: _419  and  _420
REMARK  188  A    between atoms: _420  and  _421
REMARK  189  A    between atoms: _424  and  _426
REMARK  190  A    between atoms: _426  and  _427
REMARK  191  A    between atoms: _426  and  _429
REMARK  192  A    between atoms: _429  and  _430
REMARK  193  A    between atoms: _430  and  _431
REMARK  194  A    between atoms: _433  and  _435
REMARK  195  A    between atoms: _435  and  _436
REMARK  196  A    between atoms: _435  and  _438
REMARK  197  A    between atoms: _438  and  _439
REMARK  198  A    between atoms: _445  and  _447
REMARK  199  A    between atoms: _447  and  _448
REMARK  200  A    between atoms: _447  and  _450
REMARK  201  A    between atoms: _450  and  _451
REMARK  202  A    between atoms: _456  and  _457
REMARK  203  A    between atoms: _459  and  _461
REMARK  204  A    between atoms: _461  and  _462
REMARK  205  A    between atoms: _461  and  _464
REMARK  206  A    between atoms: _464  and  _465
REMARK  207  A    between atoms: _468  and  _470
REMARK  208  A    between atoms: _470  and  _471
REMARK  209  A    between atoms: _470  and  _473
REMARK  210  A    between atoms: _473  and  _474
REMARK  211  A    between atoms: _474  and  _475
REMARK  212  A    between atoms: _475  and  _476
REMARK  213  A    between atoms: _476  and  _477
REMARK  214  A    between atoms: _482  and  _483
REMARK  215  A    between atoms: _488  and  _490
REMARK  216  A    between atoms: _490  and  _491
REMARK  217  A    between atoms: _490  and  _493
REMARK  218  A    between atoms: _493  and  _494
REMARK  219  A    between atoms: _494  and  _495
REMARK  220  A    between atoms: _498  and  _500
REMARK  221  A    between atoms: _500  and  _501
REMARK  222  A    between atoms: _500  and  _503
REMARK  223  A    between atoms: _503  and  _504
REMARK  224  A    between atoms: _509  and  _511
REMARK  225  A    between atoms: _511  and  _512
REMARK  226  A    between atoms: _511  and  _514
REMARK  227  A    between atoms: _514  and  _515
REMARK  228  A    between atoms: _518  and  _520
REMARK  229  A    between atoms: _520  and  _521
REMARK  230  A    between atoms: _520  and  _523
REMARK  231  A    between atoms: _523  and  _524
REMARK  232  A    between atoms: _524  and  _525
REMARK  233  A    between atoms: _527  and  _529
REMARK  234  A    between atoms: _529  and  _530
REMARK  235  A    between atoms: _529  and  _532
REMARK  236  A    between atoms: _532  and  _533
REMARK  237  A    between atoms: _536  and  _538
REMARK  238  A    between atoms: _538  and  _539
REMARK  239  A    between atoms: _538  and  _541
REMARK  240  A    between atoms: _541  and  _542
REMARK  241  A    between atoms: _542  and  _543
REMARK  242  A    between atoms: _543  and  _544
REMARK  243  A    between atoms: _544  and  _545
REMARK  244  A    between atoms: _549  and  _551
REMARK  245  A    between atoms: _551  and  _552
REMARK  246  A    between atoms: _551  and  _554
REMARK  247  A    between atoms: _557  and  _559
REMARK  248  A    between atoms: _559  and  _560
REMARK  249  A    between atoms: _559  and  _562
REMARK  250  A    between atoms: _562  and  _563
REMARK  251  A    between atoms: _566  and  _568
REMARK  252  A    between atoms: _568  and  _569
REMARK  253  A    between atoms: _568  and  _571
REMARK  254  A    between atoms: _571  and  _572
REMARK  255  A    between atoms: _575  and  _577
REMARK  256  A    between atoms: _577  and  _578
REMARK  257  A    between atoms: _577  and  _580
REMARK  258  A    between atoms: _580  and  _581
REMARK  259  A    between atoms: _587  and  _589
REMARK  260  A    between atoms: _589  and  _590
REMARK  261  A    between atoms: _592  and  _594
REMARK  262  A    between atoms: _594  and  _595
REMARK  263  A    between atoms: _594  and  _597
REMARK  264  A    between atoms: _597  and  _598
REMARK  265  A    between atoms: _601  and  _603
REMARK  266  A    between atoms: _603  and  _604
REMARK  267  A    between atoms: _607  and  _609
REMARK  268  A    between atoms: _609  and  _610
REMARK  269  A    between atoms: _609  and  _612
REMARK  270  A    between atoms: _614  and  _616
REMARK  271  A    between atoms: _616  and  _617
REMARK  272  A    between atoms: _619  and  _621
REMARK  273  A    between atoms: _621  and  _622
REMARK  274  A    between atoms: _621  and  _624
REMARK  275  A    between atoms: _624  and  _625
REMARK  276  A    between atoms: _631  and  _633
REMARK  277  A    between atoms: _633  and  _634
REMARK  278  A    between atoms: _633  and  _636
REMARK  279  A    between atoms: _636  and  _637
REMARK  280  A    between atoms: _642  and  _643
REMARK                            x       y       z     vdW  Elec       q    Type
REMARK                         _______ _______ _______ _____ _____    ______ ____
ROOT
ATOM      1  O   HOH     1      17.393  41.663  20.109  0.00  0.00    +0.000 OA
ENDROOT
TORSDOF 0
REMARK  Name = ../refined-set-2016/1xh9/1xh9_pocket.pdb
REMARK  280 active torsions:
REMARK  status: ('A' for Active; 'I' for Inactive)
REMARK    1  A    between atoms: _1  and  _3
REMARK    2  A    between atoms: _3  and  _4
REMARK    3  A    between atoms: _3  and  _6
REMARK    4  A    between atoms: _6  and  _7
REMARK    5  A    between atoms: _10  and  _12
REMARK    6  A    between atoms: _12  and  _13
REMARK    7  A    between atoms: _12  and  _15
REMARK    8  A    between atoms: _15  and  _16
REMARK    9  A    between atoms: _19  and  _21
REMARK   10  A    between atoms: _21  and  _22
REMARK   11  A    between atoms: _24  and  _26
REMARK   12  A    between atoms: _26  and  _27
REMARK   13  A    between atoms: _26  and  _29
REMARK   14  A    between atoms: _29  and  _30
REMARK   15  A    between atoms: _33  and  _35
REMARK   16  A    between atoms: _35  and  _36
REMARK   17  A    between atoms: _38  and  _40
REMARK   18  A    between atoms: _40  and  _41
REMARK   19  A    between atoms: _40  and  _43
REMARK   20  A    between atoms: _43  and  _44
REMARK   21  A    between atoms: _46  and  _48
REMARK   22  A    between atoms: _48  and  _49
REMARK   23  A    between atoms: _48  and  _51
REMARK   24  A    between atoms: _51  and  _52
REMARK   25  A    between atoms: _58  and  _60
REMARK   26  A    between atoms: _60  and  _61
REMARK   27  A    between atoms: _63  and  _65
REMARK   28  A    between atoms: _65  and  _66
REMARK   29  A    between atoms: _65  and  _68
REMARK   30  A    between atoms: _68  and  _69
REMARK   31  A    between atoms: _69  and  _70
REMARK   32  A    between atoms: _70  and  _71
REMARK   33  A    between atoms: _80  and  _82
REMARK   34  A    between atoms: _82  and  _83
REMARK   35  A    between atoms: _82  and  _85
REMARK   36  A    between atoms: _88  and  _90
REMARK   37  A    between atoms: _90  and  _91
REMARK   38  A    between atoms: _90  and  _93
REMARK   39  A    between atoms: _93  and  _94
REMARK   40  A    between atoms: _94  and  _95
REMARK   41  A    between atoms: _97  and  _99
REMARK   42  A    between atoms: _99  and  _100
REMARK   43  A    between atoms: _99  and  _102
REMARK   44  A    between atoms: _102  and  _103
REMARK   45  A    between atoms: _106  and  _108
REMARK   46  A    between atoms: _108  and  _109
REMARK   47  A    between atoms: _108  and  _111
REMARK   48  A    between atoms: _111  and  _112
REMARK   49  A    between atoms: _117  and  _118
REMARK   50  A    between atoms: _120  and  _122
REMARK   51  A    between atoms: _122  and  _123
REMARK   52  A    between atoms: _126  and  _128
REMARK   53  A    between atoms: _128  and  _129
REMARK   54  A    between atoms: _128  and  _131
REMARK   55  A    between atoms: _131  and  _132
REMARK   56  A    between atoms: _132  and  _133
REMARK   57  A    between atoms: _135  and  _137
REMARK   58  A    between atoms: _137  and  _138
REMARK   59  A    between atoms: _137  and  _140
REMARK   60  A    between atoms: _140  and  _141
REMARK   61  A    between atoms: _141  and  _142
REMARK   62  A    between atoms: _142  and  _143
REMARK   63  A    between atoms: _143  and  _144
REMARK   64  A    between atoms: _148  and  _150
REMARK   65  A    between atoms: _150  and  _151
REMARK   66  A    between atoms: _150  and  _153
REMARK   67  A    between atoms: _153  and  _154
REMARK   68  A    between atoms: _157  and  _159
REMARK   69  A    between atoms: _159  and  _160
REMARK   70  A    between atoms: _159  and  _162
REMARK   71  A    between atoms: _162  and  _163
REMARK   72  A    between atoms: _166  and  _168
REMARK   73  A    between atoms: _168  and  _169
REMARK   74  A    between atoms: _168  and  _171
REMARK   75  A    between atoms: _171  and  _172
REMARK   76  A    between atoms: _175  and  _177
REMARK   77  A    between atoms: _177  and  _178
REMARK   78  A    between atoms: _177  and  _180
REMARK   79  A    between atoms: _180  and  _181
REMARK   80  A    between atoms: _181  and  _182
REMARK   81  A    between atoms: _182  and  _183
REMARK   82  A    between atoms: _183  and  _184
REMARK   83  A    between atoms: _188  and  _190
REMARK   84  A    between atoms: _190  and  _191
REMARK   85  A    between atoms: _190  and  _193
REMARK   86  A    between atoms: _196  and  _198
REMARK   87  A    between atoms: _198  and  _199
REMARK   88  A    between atoms: _198  and  _201
REMARK   89  A    between atoms: _201  and  _202
REMARK   90  A    between atoms: _205  and  _207
REMARK   91  A    between atoms: _207  and  _208
REMARK   92  A    between atoms: _207  and  _210
REMARK   93  A    between atoms: _210  and  _211
REMARK   94  A    between atoms: _211  and  _212
REMARK   95  A    between atoms: _212  and  _213
REMARK   96  A    between atoms: _213  and  _214
REMARK   97  A    between atoms: _218  and  _220
REMARK   98  A    between atoms: _220  and  _221
REMARK   99  A    between atoms: _220  and  _223
REMARK  100  A    between atoms: _223  and  _224
REMARK  101  A    between atoms: _224  and  _225
REMARK  102  A    between atoms: _228  and  _230
REMARK  103  A    between atoms: _230  and  _231
REMARK  104  A    between atoms: _230  and  _233
REMARK  105  A    between atoms: _233  and  _234
REMARK  106  A    between atoms: _237  and  _239
REMARK  107  A    between atoms: _239  and  _240
REMARK  108  A    between atoms: _239  and  _242
REMARK  109  A    between atoms: _242  and  _243
REMARK  110  A    between atoms: _243  and  _244
REMARK  111  A    between atoms: _247  and  _249
REMARK  112  A    between atoms: _249  and  _250
REMARK  113  A    between atoms: _249  and  _252
REMARK  114  A    between atoms: _252  and  _253
REMARK  115  A    between atoms: _258  and  _260
REMARK  116  A    between atoms: _260  and  _261
REMARK  117  A    between atoms: _260  and  _263
REMARK  118  A    between atoms: _263  and  _264
REMARK  119  A    between atoms: _267  and  _269
REMARK  120  A    between atoms: _269  and  _270
REMARK  121  A    between atoms: _269  and  _272
REMARK  122  A    between atoms: _272  and  _273
REMARK  123  A    between atoms: _276  and  _278
REMARK  124  A    between atoms: _278  and  _279
REMARK  125  A    between atoms: _278  and  _281
REMARK  126  A    between atoms: _281  and  _282
REMARK  127  A    between atoms: _287  and  _289
REMARK  128  A    between atoms: _289  and  _290
REMARK  129  A    between atoms: _289  and  _292
REMARK  130  A    between atoms: _292  and  _293
REMARK  131  A    between atoms: _293  and  _294
REMARK  132  A    between atoms: _297  and  _299
REMARK  133  A    between atoms: _299  and  _300
REMARK  134  A    between atoms: _299  and  _302
REMARK  135  A    between atoms: _302  and  _303
REMARK  136  A    between atoms: _303  and  _304
REMARK  137  A    between atoms: _304  and  _305
REMARK  138  A    between atoms: _305  and  _306
REMARK  139  A    between atoms: _310  and  _312
REMARK  140  A    between atoms: _312  and  _313
REMARK  141  A    between atoms: _312  and  _315
REMARK  142  A    between atoms: _315  and  _316
REMARK  143  A    between atoms: _319  and  _321
REMARK  144  A    between atoms: _321  and  _322
REMARK  145  A    between atoms: _321  and  _324
REMARK  146  A    between atoms: _327  and  _329
REMARK  147  A    between atoms: _329  and  _330
REMARK  148  A    between atoms: _329  and  _332
REMARK  149  A    between atoms: _332  and  _333
REMARK  150  A    between atoms: _333  and  _334
REMARK  151  A    between atoms: _334  and  _335
REMARK  152  A    between atoms: _335  and  _336
REMARK  153  A    between atoms: _340  and  _342
REMARK  154  A    between atoms: _342  and  _343
REMARK  155  A    between atoms: _342  and  _345
REMARK  156  A    between atoms: _345  and  _346
REMARK  157  A    between atoms: _349  and  _351
REMARK  158  A    between atoms: _351  and  _352
REMARK  159  A    between atoms: _351  and  _354
REMARK  160  A    between atoms: _354  and  _355
REMARK  161  A    between atoms: _355  and  _356
REMARK  162  A    between atoms: _358  and  _360
REMARK  163  A    between atoms: _360  and  _361
REMARK  164  A    between atoms: _360  and  _363
REMARK  165  A    between atoms: _363  and  _364
REMARK  166  A    between atoms: _364  and  _365
REMARK  167  A    between atoms: _367  and  _369
REMARK  168  A    between atoms: _369  and  _370
REMARK  169  A    between atoms: _369  and  _372
REMARK  170  A    between atoms: _372  and  _373
REMARK  171  A    between atoms: _373  and  _374
REMARK  172  A    between atoms: _377  and  _379
REMARK  173  A    between atoms: _379  and  _380
REMARK  174  A    between atoms: _379  and  _382
REMARK  175  A    between atoms: _382  and  _383
REMARK  176  A    between atoms: _388  and  _389
REMARK  177  A    between atoms: _391  and  _393
REMARK  178  A    between atoms: _393  and  _394
REMARK  179  A    between atoms: _398  and  _399
REMARK  180  A    between atoms: _404  and  _406
REMARK  181  A    between atoms: _406  and  _407
REMARK  182  A    between atoms: _409  and  _411
REMARK  183  A    between atoms: _411  and  _412
REMARK  184  A    between atoms: _414  and  _416
REMARK  185  A    between atoms: _416  and  _417
REMARK  186  A    between atoms: _416  and  _419
REMARK  187  A    between atoms: _419  and  _420
REMARK  188  A    between atoms: _420  and  _421
REMARK  189  A    between atoms: _424  and  _426
REMARK  190  A    between atoms: _426  and  _427
REMARK  191  A    between atoms: _426  and  _429
REMARK  192  A    between atoms: _429  and  _430
REMARK  193  A    between atoms: _430  and  _431
REMARK  194  A    between atoms: _433  and  _435
REMARK  195  A    between atoms: _435  and  _436
REMARK  196  A    between atoms: _435  and  _438
REMARK  197  A    between atoms: _438  and  _439
REMARK  198  A    between atoms: _445  and  _447
REMARK  199  A    between atoms: _447  and  _448
REMARK  200  A    between atoms: _447  and  _450
REMARK  201  A    between atoms: _450  and  _451
REMARK  202  A    between atoms: _456  and  _457
REMARK  203  A    between atoms: _459  and  _461
REMARK  204  A    between atoms: _461  and  _462
REMARK  205  A    between atoms: _461  and  _464
REMARK  206  A    between atoms: _464  and  _465
REMARK  207  A    between atoms: _468  and  _470
REMARK  208  A    between atoms: _470  and  _471
REMARK  209  A    between atoms: _470  and  _473
REMARK  210  A    between atoms: _473  and  _474
REMARK  211  A    between atoms: _474  and  _475
REMARK  212  A    between atoms: _475  and  _476
REMARK  213  A    between atoms: _476  and  _477
REMARK  214  A    between atoms: _482  and  _483
REMARK  215  A    between atoms: _488  and  _490
REMARK  216  A    between atoms: _490  and  _491
REMARK  217  A    between atoms: _490  and  _493
REMARK  218  A    between atoms: _493  and  _494
REMARK  219  A    between atoms: _494  and  _495
REMARK  220  A    between atoms: _498  and  _500
REMARK  221  A    between atoms: _500  and  _501
REMARK  222  A    between atoms: _500  and  _503
REMARK  223  A    between atoms: _503  and  _504
REMARK  224  A    between atoms: _509  and  _511
REMARK  225  A    between atoms: _511  and  _512
REMARK  226  A    between atoms: _511  and  _514
REMARK  227  A    between atoms: _514  and  _515
REMARK  228  A    between atoms: _518  and  _520
REMARK  229  A    between atoms: _520  and  _521
REMARK  230  A    between atoms: _520  and  _523
REMARK  231  A    between atoms: _523  and  _524
REMARK  232  A    between atoms: _524  and  _525
REMARK  233  A    between atoms: _527  and  _529
REMARK  234  A    between atoms: _529  and  _530
REMARK  235  A    between atoms: _529  and  _532
REMARK  236  A    between atoms: _532  and  _533
REMARK  237  A    between atoms: _536  and  _538
REMARK  238  A    between atoms: _538  and  _539
REMARK  239  A    between atoms: _538  and  _541
REMARK  240  A    between atoms: _541  and  _542
REMARK  241  A    between atoms: _542  and  _543
REMARK  242  A    between atoms: _543  and  _544
REMARK  243  A    between atoms: _544  and  _545
REMARK  244  A    between atoms: _549  and  _551
REMARK  245  A    between atoms: _551  and  _552
REMARK  246  A    between atoms: _551  and  _554
REMARK  247  A    between atoms: _557  and  _559
REMARK  248  A    between atoms: _559  and  _560
REMARK  249  A    between atoms: _559  and  _562
REMARK  250  A    between atoms: _562  and  _563
REMARK  251  A    between atoms: _566  and  _568
REMARK  252  A    between atoms: _568  and  _569
REMARK  253  A    between atoms: _568  and  _571
REMARK  254  A    between atoms: _571  and  _572
REMARK  255  A    between atoms: _575  and  _577
REMARK  256  A    between atoms: _577  and  _578
REMARK  257  A    between atoms: _577  and  _580
REMARK  258  A    between atoms: _580  and  _581
REMARK  259  A    between atoms: _587  and  _589
REMARK  260  A    between atoms: _589  and  _590
REMARK  261  A    between atoms: _592  and  _594
REMARK  262  A    between atoms: _594  and  _595
REMARK  263  A    between atoms: _594  and  _597
REMARK  264  A    between atoms: _597  and  _598
REMARK  265  A    between atoms: _601  and  _603
REMARK  266  A    between atoms: _603  and  _604
REMARK  267  A    between atoms: _607  and  _609
REMARK  268  A    between atoms: _609  and  _610
REMARK  269  A    between atoms: _609  and  _612
REMARK  270  A    between atoms: _614  and  _616
REMARK  271  A    between atoms: _616  and  _617
REMARK  272  A    between atoms: _619  and  _621
REMARK  273  A    between atoms: _621  and  _622
REMARK  274  A    between atoms: _621  and  _624
REMARK  275  A    between atoms: _624  and  _625
REMARK  276  A    between atoms: _631  and  _633
REMARK  277  A    between atoms: _633  and  _634
REMARK  278  A    between atoms: _633  and  _636
REMARK  279  A    between atoms: _636  and  _637
REMARK  280  A    between atoms: _642  and  _643
REMARK                            x       y       z     vdW  Elec       q    Type
REMARK                         _______ _______ _______ _____ _____    ______ ____
ROOT
ATOM      1  O   HOH     1      12.208  42.645  20.728  0.00  0.00    +0.000 OA
ENDROOT
TORSDOF 0
REMARK  Name = ../refined-set-2016/1xh9/1xh9_pocket.pdb
REMARK  280 active torsions:
REMARK  status: ('A' for Active; 'I' for Inactive)
REMARK    1  A    between atoms: _1  and  _3
REMARK    2  A    between atoms: _3  and  _4
REMARK    3  A    between atoms: _3  and  _6
REMARK    4  A    between atoms: _6  and  _7
REMARK    5  A    between atoms: _10  and  _12
REMARK    6  A    between atoms: _12  and  _13
REMARK    7  A    between atoms: _12  and  _15
REMARK    8  A    between atoms: _15  and  _16
REMARK    9  A    between atoms: _19  and  _21
REMARK   10  A    between atoms: _21  and  _22
REMARK   11  A    between atoms: _24  and  _26
REMARK   12  A    between atoms: _26  and  _27
REMARK   13  A    between atoms: _26  and  _29
REMARK   14  A    between atoms: _29  and  _30
REMARK   15  A    between atoms: _33  and  _35
REMARK   16  A    between atoms: _35  and  _36
REMARK   17  A    between atoms: _38  and  _40
REMARK   18  A    between atoms: _40  and  _41
REMARK   19  A    between atoms: _40  and  _43
REMARK   20  A    between atoms: _43  and  _44
REMARK   21  A    between atoms: _46  and  _48
REMARK   22  A    between atoms: _48  and  _49
REMARK   23  A    between atoms: _48  and  _51
REMARK   24  A    between atoms: _51  and  _52
REMARK   25  A    between atoms: _58  and  _60
REMARK   26  A    between atoms: _60  and  _61
REMARK   27  A    between atoms: _63  and  _65
REMARK   28  A    between atoms: _65  and  _66
REMARK   29  A    between atoms: _65  and  _68
REMARK   30  A    between atoms: _68  and  _69
REMARK   31  A    between atoms: _69  and  _70
REMARK   32  A    between atoms: _70  and  _71
REMARK   33  A    between atoms: _80  and  _82
REMARK   34  A    between atoms: _82  and  _83
REMARK   35  A    between atoms: _82  and  _85
REMARK   36  A    between atoms: _88  and  _90
REMARK   37  A    between atoms: _90  and  _91
REMARK   38  A    between atoms: _90  and  _93
REMARK   39  A    between atoms: _93  and  _94
REMARK   40  A    between atoms: _94  and  _95
REMARK   41  A    between atoms: _97  and  _99
REMARK   42  A    between atoms: _99  and  _100
REMARK   43  A    between atoms: _99  and  _102
REMARK   44  A    between atoms: _102  and  _103
REMARK   45  A    between atoms: _106  and  _108
REMARK   46  A    between atoms: _108  and  _109
REMARK   47  A    between atoms: _108  and  _111
REMARK   48  A    between atoms: _111  and  _112
REMARK   49  A    between atoms: _117  and  _118
REMARK   50  A    between atoms: _120  and  _122
REMARK   51  A    between atoms: _122  and  _123
REMARK   52  A    between atoms: _126  and  _128
REMARK   53  A    between atoms: _128  and  _129
REMARK   54  A    between atoms: _128  and  _131
REMARK   55  A    between atoms: _131  and  _132
REMARK   56  A    between atoms: _132  and  _133
REMARK   57  A    between atoms: _135  and  _137
REMARK   58  A    between atoms: _137  and  _138
REMARK   59  A    between atoms: _137  and  _140
REMARK   60  A    between atoms: _140  and  _141
REMARK   61  A    between atoms: _141  and  _142
REMARK   62  A    between atoms: _142  and  _143
REMARK   63  A    between atoms: _143  and  _144
REMARK   64  A    between atoms: _148  and  _150
REMARK   65  A    between atoms: _150  and  _151
REMARK   66  A    between atoms: _150  and  _153
REMARK   67  A    between atoms: _153  and  _154
REMARK   68  A    between atoms: _157  and  _159
REMARK   69  A    between atoms: _159  and  _160
REMARK   70  A    between atoms: _159  and  _162
REMARK   71  A    between atoms: _162  and  _163
REMARK   72  A    between atoms: _166  and  _168
REMARK   73  A    between atoms: _168  and  _169
REMARK   74  A    between atoms: _168  and  _171
REMARK   75  A    between atoms: _171  and  _172
REMARK   76  A    between atoms: _175  and  _177
REMARK   77  A    between atoms: _177  and  _178
REMARK   78  A    between atoms: _177  and  _180
REMARK   79  A    between atoms: _180  and  _181
REMARK   80  A    between atoms: _181  and  _182
REMARK   81  A    between atoms: _182  and  _183
REMARK   82  A    between atoms: _183  and  _184
REMARK   83  A    between atoms: _188  and  _190
REMARK   84  A    between atoms: _190  and  _191
REMARK   85  A    between atoms: _190  and  _193
REMARK   86  A    between atoms: _196  and  _198
REMARK   87  A    between atoms: _198  and  _199
REMARK   88  A    between atoms: _198  and  _201
REMARK   89  A    between atoms: _201  and  _202
REMARK   90  A    between atoms: _205  and  _207
REMARK   91  A    between atoms: _207  and  _208
REMARK   92  A    between atoms: _207  and  _210
REMARK   93  A    between atoms: _210  and  _211
REMARK   94  A    between atoms: _211  and  _212
REMARK   95  A    between atoms: _212  and  _213
REMARK   96  A    between atoms: _213  and  _214
REMARK   97  A    between atoms: _218  and  _220
REMARK   98  A    between atoms: _220  and  _221
REMARK   99  A    between atoms: _220  and  _223
REMARK  100  A    between atoms: _223  and  _224
REMARK  101  A    between atoms: _224  and  _225
REMARK  102  A    between atoms: _228  and  _230
REMARK  103  A    between atoms: _230  and  _231
REMARK  104  A    between atoms: _230  and  _233
REMARK  105  A    between atoms: _233  and  _234
REMARK  106  A    between atoms: _237  and  _239
REMARK  107  A    between atoms: _239  and  _240
REMARK  108  A    between atoms: _239  and  _242
REMARK  109  A    between atoms: _242  and  _243
REMARK  110  A    between atoms: _243  and  _244
REMARK  111  A    between atoms: _247  and  _249
REMARK  112  A    between atoms: _249  and  _250
REMARK  113  A    between atoms: _249  and  _252
REMARK  114  A    between atoms: _252  and  _253
REMARK  115  A    between atoms: _258  and  _260
REMARK  116  A    between atoms: _260  and  _261
REMARK  117  A    between atoms: _260  and  _263
REMARK  118  A    between atoms: _263  and  _264
REMARK  119  A    between atoms: _267  and  _269
REMARK  120  A    between atoms: _269  and  _270
REMARK  121  A    between atoms: _269  and  _272
REMARK  122  A    between atoms: _272  and  _273
REMARK  123  A    between atoms: _276  and  _278
REMARK  124  A    between atoms: _278  and  _279
REMARK  125  A    between atoms: _278  and  _281
REMARK  126  A    between atoms: _281  and  _282
REMARK  127  A    between atoms: _287  and  _289
REMARK  128  A    between atoms: _289  and  _290
REMARK  129  A    between atoms: _289  and  _292
REMARK  130  A    between atoms: _292  and  _293
REMARK  131  A    between atoms: _293  and  _294
REMARK  132  A    between atoms: _297  and  _299
REMARK  133  A    between atoms: _299  and  _300
REMARK  134  A    between atoms: _299  and  _302
REMARK  135  A    between atoms: _302  and  _303
REMARK  136  A    between atoms: _303  and  _304
REMARK  137  A    between atoms: _304  and  _305
REMARK  138  A    between atoms: _305  and  _306
REMARK  139  A    between atoms: _310  and  _312
REMARK  140  A    between atoms: _312  and  _313
REMARK  141  A    between atoms: _312  and  _315
REMARK  142  A    between atoms: _315  and  _316
REMARK  143  A    between atoms: _319  and  _321
REMARK  144  A    between atoms: _321  and  _322
REMARK  145  A    between atoms: _321  and  _324
REMARK  146  A    between atoms: _327  and  _329
REMARK  147  A    between atoms: _329  and  _330
REMARK  148  A    between atoms: _329  and  _332
REMARK  149  A    between atoms: _332  and  _333
REMARK  150  A    between atoms: _333  and  _334
REMARK  151  A    between atoms: _334  and  _335
REMARK  152  A    between atoms: _335  and  _336
REMARK  153  A    between atoms: _340  and  _342
REMARK  154  A    between atoms: _342  and  _343
REMARK  155  A    between atoms: _342  and  _345
REMARK  156  A    between atoms: _345  and  _346
REMARK  157  A    between atoms: _349  and  _351
REMARK  158  A    between atoms: _351  and  _352
REMARK  159  A    between atoms: _351  and  _354
REMARK  160  A    between atoms: _354  and  _355
REMARK  161  A    between atoms: _355  and  _356
REMARK  162  A    between atoms: _358  and  _360
REMARK  163  A    between atoms: _360  and  _361
REMARK  164  A    between atoms: _360  and  _363
REMARK  165  A    between atoms: _363  and  _364
REMARK  166  A    between atoms: _364  and  _365
REMARK  167  A    between atoms: _367  and  _369
REMARK  168  A    between atoms: _369  and  _370
REMARK  169  A    between atoms: _369  and  _372
REMARK  170  A    between atoms: _372  and  _373
REMARK  171  A    between atoms: _373  and  _374
REMARK  172  A    between atoms: _377  and  _379
REMARK  173  A    between atoms: _379  and  _380
REMARK  174  A    between atoms: _379  and  _382
REMARK  175  A    between atoms: _382  and  _383
REMARK  176  A    between atoms: _388  and  _389
REMARK  177  A    between atoms: _391  and  _393
REMARK  178  A    between atoms: _393  and  _394
REMARK  179  A    between atoms: _398  and  _399
REMARK  180  A    between atoms: _404  and  _406
REMARK  181  A    between atoms: _406  and  _407
REMARK  182  A    between atoms: _409  and  _411
REMARK  183  A    between atoms: _411  and  _412
REMARK  184  A    between atoms: _414  and  _416
REMARK  185  A    between atoms: _416  and  _417
REMARK  186  A    between atoms: _416  and  _419
REMARK  187  A    between atoms: _419  and  _420
REMARK  188  A    between atoms: _420  and  _421
REMARK  189  A    between atoms: _424  and  _426
REMARK  190  A    between atoms: _426  and  _427
REMARK  191  A    between atoms: _426  and  _429
REMARK  192  A    between atoms: _429  and  _430
REMARK  193  A    between atoms: _430  and  _431
REMARK  194  A    between atoms: _433  and  _435
REMARK  195  A    between atoms: _435  and  _436
REMARK  196  A    between atoms: _435  and  _438
REMARK  197  A    between atoms: _438  and  _439
REMARK  198  A    between atoms: _445  and  _447
REMARK  199  A    between atoms: _447  and  _448
REMARK  200  A    between atoms: _447  and  _450
REMARK  201  A    between atoms: _450  and  _451
REMARK  202  A    between atoms: _456  and  _457
REMARK  203  A    between atoms: _459  and  _461
REMARK  204  A    between atoms: _461  and  _462
REMARK  205  A    between atoms: _461  and  _464
REMARK  206  A    between atoms: _464  and  _465
REMARK  207  A    between atoms: _468  and  _470
REMARK  208  A    between atoms: _470  and  _471
REMARK  209  A    between atoms: _470  and  _473
REMARK  210  A    between atoms: _473  and  _474
REMARK  211  A    between atoms: _474  and  _475
REMARK  212  A    between atoms: _475  and  _476
REMARK  213  A    between atoms: _476  and  _477
REMARK  214  A    between atoms: _482  and  _483
REMARK  215  A    between atoms: _488  and  _490
REMARK  216  A    between atoms: _490  and  _491
REMARK  217  A    between atoms: _490  and  _493
REMARK  218  A    between atoms: _493  and  _494
REMARK  219  A    between atoms: _494  and  _495
REMARK  220  A    between atoms: _498  and  _500
REMARK  221  A    between atoms: _500  and  _501
REMARK  222  A    between atoms: _500  and  _503
REMARK  223  A    between atoms: _503  and  _504
REMARK  224  A    between atoms: _509  and  _511
REMARK  225  A    between atoms: _511  and  _512
REMARK  226  A    between atoms: _511  and  _514
REMARK  227  A    between atoms: _514  and  _515
REMARK  228  A    between atoms: _518  and  _520
REMARK  229  A    between atoms: _520  and  _521
REMARK  230  A    between atoms: _520  and  _523
REMARK  231  A    between atoms: _523  and  _524
REMARK  232  A    between atoms: _524  and  _525
REMARK  233  A    between atoms: _527  and  _529
REMARK  234  A    between atoms: _529  and  _530
REMARK  235  A    between atoms: _529  and  _532
REMARK  236  A    between atoms: _532  and  _533
REMARK  237  A    between atoms: _536  and  _538
REMARK  238  A    between atoms: _538  and  _539
REMARK  239  A    between atoms: _538  and  _541
REMARK  240  A    between atoms: _541  and  _542
REMARK  241  A    between atoms: _542  and  _543
REMARK  242  A    between atoms: _543  and  _544
REMARK  243  A    between atoms: _544  and  _545
REMARK  244  A    between atoms: _549  and  _551
REMARK  245  A    between atoms: _551  and  _552
REMARK  246  A    between atoms: _551  and  _554
REMARK  247  A    between atoms: _557  and  _559
REMARK  248  A    between atoms: _559  and  _560
REMARK  249  A    between atoms: _559  and  _562
REMARK  250  A    between atoms: _562  and  _563
REMARK  251  A    between atoms: _566  and  _568
REMARK  252  A    between atoms: _568  and  _569
REMARK  253  A    between atoms: _568  and  _571
REMARK  254  A    between atoms: _571  and  _572
REMARK  255  A    between atoms: _575  and  _577
REMARK  256  A    between atoms: _577  and  _578
REMARK  257  A    between atoms: _577  and  _580
REMARK  258  A    between atoms: _580  and  _581
REMARK  259  A    between atoms: _587  and  _589
REMARK  260  A    between atoms: _589  and  _590
REMARK  261  A    between atoms: _592  and  _594
REMARK  262  A    between atoms: _594  and  _595
REMARK  263  A    between atoms: _594  and  _597
REMARK  264  A    between atoms: _597  and  _598
REMARK  265  A    between atoms: _601  and  _603
REMARK  266  A    between atoms: _603  and  _604
REMARK  267  A    between atoms: _607  and  _609
REMARK  268  A    between atoms: _609  and  _610
REMARK  269  A    between atoms: _609  and  _612
REMARK  270  A    between atoms: _614  and  _616
REMARK  271  A    between atoms: _616  and  _617
REMARK  272  A    between atoms: _619  and  _621
REMARK  273  A    between atoms: _621  and  _622
REMARK  274  A    between atoms: _621  and  _624
REMARK  275  A    between atoms: _624  and  _625
REMARK  276  A    between atoms: _631  and  _633
REMARK  277  A    between atoms: _633  and  _634
REMARK  278  A    between atoms: _633  and  _636
REMARK  279  A    between atoms: _636  and  _637
REMARK  280  A    between atoms: _642  and  _643
REMARK                            x       y       z     vdW  Elec       q    Type
REMARK                         _______ _______ _______ _____ _____    ______ ____
ROOT
ATOM      1  O   HOH     1      18.973  39.255  21.231  0.00  0.00    +0.000 OA
ENDROOT
TORSDOF 0
REMARK  Name = ../refined-set-2016/1xh9/1xh9_pocket.pdb
REMARK  280 active torsions:
REMARK  status: ('A' for Active; 'I' for Inactive)
REMARK    1  A    between atoms: _1  and  _3
REMARK    2  A    between atoms: _3  and  _4
REMARK    3  A    between atoms: _3  and  _6
REMARK    4  A    between atoms: _6  and  _7
REMARK    5  A    between atoms: _10  and  _12
REMARK    6  A    between atoms: _12  and  _13
REMARK    7  A    between atoms: _12  and  _15
REMARK    8  A    between atoms: _15  and  _16
REMARK    9  A    between atoms: _19  and  _21
REMARK   10  A    between atoms: _21  and  _22
REMARK   11  A    between atoms: _24  and  _26
REMARK   12  A    between atoms: _26  and  _27
REMARK   13  A    between atoms: _26  and  _29
REMARK   14  A    between atoms: _29  and  _30
REMARK   15  A    between atoms: _33  and  _35
REMARK   16  A    between atoms: _35  and  _36
REMARK   17  A    between atoms: _38  and  _40
REMARK   18  A    between atoms: _40  and  _41
REMARK   19  A    between atoms: _40  and  _43
REMARK   20  A    between atoms: _43  and  _44
REMARK   21  A    between atoms: _46  and  _48
REMARK   22  A    between atoms: _48  and  _49
REMARK   23  A    between atoms: _48  and  _51
REMARK   24  A    between atoms: _51  and  _52
REMARK   25  A    between atoms: _58  and  _60
REMARK   26  A    between atoms: _60  and  _61
REMARK   27  A    between atoms: _63  and  _65
REMARK   28  A    between atoms: _65  and  _66
REMARK   29  A    between atoms: _65  and  _68
REMARK   30  A    between atoms: _68  and  _69
REMARK   31  A    between atoms: _69  and  _70
REMARK   32  A    between atoms: _70  and  _71
REMARK   33  A    between atoms: _80  and  _82
REMARK   34  A    between atoms: _82  and  _83
REMARK   35  A    between atoms: _82  and  _85
REMARK   36  A    between atoms: _88  and  _90
REMARK   37  A    between atoms: _90  and  _91
REMARK   38  A    between atoms: _90  and  _93
REMARK   39  A    between atoms: _93  and  _94
REMARK   40  A    between atoms: _94  and  _95
REMARK   41  A    between atoms: _97  and  _99
REMARK   42  A    between atoms: _99  and  _100
REMARK   43  A    between atoms: _99  and  _102
REMARK   44  A    between atoms: _102  and  _103
REMARK   45  A    between atoms: _106  and  _108
REMARK   46  A    between atoms: _108  and  _109
REMARK   47  A    between atoms: _108  and  _111
REMARK   48  A    between atoms: _111  and  _112
REMARK   49  A    between atoms: _117  and  _118
REMARK   50  A    between atoms: _120  and  _122
REMARK   51  A    between atoms: _122  and  _123
REMARK   52  A    between atoms: _126  and  _128
REMARK   53  A    between atoms: _128  and  _129
REMARK   54  A    between atoms: _128  and  _131
REMARK   55  A    between atoms: _131  and  _132
REMARK   56  A    between atoms: _132  and  _133
REMARK   57  A    between atoms: _135  and  _137
REMARK   58  A    between atoms: _137  and  _138
REMARK   59  A    between atoms: _137  and  _140
REMARK   60  A    between atoms: _140  and  _141
REMARK   61  A    between atoms: _141  and  _142
REMARK   62  A    between atoms: _142  and  _143
REMARK   63  A    between atoms: _143  and  _144
REMARK   64  A    between atoms: _148  and  _150
REMARK   65  A    between atoms: _150  and  _151
REMARK   66  A    between atoms: _150  and  _153
REMARK   67  A    between atoms: _153  and  _154
REMARK   68  A    between atoms: _157  and  _159
REMARK   69  A    between atoms: _159  and  _160
REMARK   70  A    between atoms: _159  and  _162
REMARK   71  A    between atoms: _162  and  _163
REMARK   72  A    between atoms: _166  and  _168
REMARK   73  A    between atoms: _168  and  _169
REMARK   74  A    between atoms: _168  and  _171
REMARK   75  A    between atoms: _171  and  _172
REMARK   76  A    between atoms: _175  and  _177
REMARK   77  A    between atoms: _177  and  _178
REMARK   78  A    between atoms: _177  and  _180
REMARK   79  A    between atoms: _180  and  _181
REMARK   80  A    between atoms: _181  and  _182
REMARK   81  A    between atoms: _182  and  _183
REMARK   82  A    between atoms: _183  and  _184
REMARK   83  A    between atoms: _188  and  _190
REMARK   84  A    between atoms: _190  and  _191
REMARK   85  A    between atoms: _190  and  _193
REMARK   86  A    between atoms: _196  and  _198
REMARK   87  A    between atoms: _198  and  _199
REMARK   88  A    between atoms: _198  and  _201
REMARK   89  A    between atoms: _201  and  _202
REMARK   90  A    between atoms: _205  and  _207
REMARK   91  A    between atoms: _207  and  _208
REMARK   92  A    between atoms: _207  and  _210
REMARK   93  A    between atoms: _210  and  _211
REMARK   94  A    between atoms: _211  and  _212
REMARK   95  A    between atoms: _212  and  _213
REMARK   96  A    between atoms: _213  and  _214
REMARK   97  A    between atoms: _218  and  _220
REMARK   98  A    between atoms: _220  and  _221
REMARK   99  A    between atoms: _220  and  _223
REMARK  100  A    between atoms: _223  and  _224
REMARK  101  A    between atoms: _224  and  _225
REMARK  102  A    between atoms: _228  and  _230
REMARK  103  A    between atoms: _230  and  _231
REMARK  104  A    between atoms: _230  and  _233
REMARK  105  A    between atoms: _233  and  _234
REMARK  106  A    between atoms: _237  and  _239
REMARK  107  A    between atoms: _239  and  _240
REMARK  108  A    between atoms: _239  and  _242
REMARK  109  A    between atoms: _242  and  _243
REMARK  110  A    between atoms: _243  and  _244
REMARK  111  A    between atoms: _247  and  _249
REMARK  112  A    between atoms: _249  and  _250
REMARK  113  A    between atoms: _249  and  _252
REMARK  114  A    between atoms: _252  and  _253
REMARK  115  A    between atoms: _258  and  _260
REMARK  116  A    between atoms: _260  and  _261
REMARK  117  A    between atoms: _260  and  _263
REMARK  118  A    between atoms: _263  and  _264
REMARK  119  A    between atoms: _267  and  _269
REMARK  120  A    between atoms: _269  and  _270
REMARK  121  A    between atoms: _269  and  _272
REMARK  122  A    between atoms: _272  and  _273
REMARK  123  A    between atoms: _276  and  _278
REMARK  124  A    between atoms: _278  and  _279
REMARK  125  A    between atoms: _278  and  _281
REMARK  126  A    between atoms: _281  and  _282
REMARK  127  A    between atoms: _287  and  _289
REMARK  128  A    between atoms: _289  and  _290
REMARK  129  A    between atoms: _289  and  _292
REMARK  130  A    between atoms: _292  and  _293
REMARK  131  A    between atoms: _293  and  _294
REMARK  132  A    between atoms: _297  and  _299
REMARK  133  A    between atoms: _299  and  _300
REMARK  134  A    between atoms: _299  and  _302
REMARK  135  A    between atoms: _302  and  _303
REMARK  136  A    between atoms: _303  and  _304
REMARK  137  A    between atoms: _304  and  _305
REMARK  138  A    between atoms: _305  and  _306
REMARK  139  A    between atoms: _310  and  _312
REMARK  140  A    between atoms: _312  and  _313
REMARK  141  A    between atoms: _312  and  _315
REMARK  142  A    between atoms: _315  and  _316
REMARK  143  A    between atoms: _319  and  _321
REMARK  144  A    between atoms: _321  and  _322
REMARK  145  A    between atoms: _321  and  _324
REMARK  146  A    between atoms: _327  and  _329
REMARK  147  A    between atoms: _329  and  _330
REMARK  148  A    between atoms: _329  and  _332
REMARK  149  A    between atoms: _332  and  _333
REMARK  150  A    between atoms: _333  and  _334
REMARK  151  A    between atoms: _334  and  _335
REMARK  152  A    between atoms: _335  and  _336
REMARK  153  A    between atoms: _340  and  _342
REMARK  154  A    between atoms: _342  and  _343
REMARK  155  A    between atoms: _342  and  _345
REMARK  156  A    between atoms: _345  and  _346
REMARK  157  A    between atoms: _349  and  _351
REMARK  158  A    between atoms: _351  and  _352
REMARK  159  A    between atoms: _351  and  _354
REMARK  160  A    between atoms: _354  and  _355
REMARK  161  A    between atoms: _355  and  _356
REMARK  162  A    between atoms: _358  and  _360
REMARK  163  A    between atoms: _360  and  _361
REMARK  164  A    between atoms: _360  and  _363
REMARK  165  A    between atoms: _363  and  _364
REMARK  166  A    between atoms: _364  and  _365
REMARK  167  A    between atoms: _367  and  _369
REMARK  168  A    between atoms: _369  and  _370
REMARK  169  A    between atoms: _369  and  _372
REMARK  170  A    between atoms: _372  and  _373
REMARK  171  A    between atoms: _373  and  _374
REMARK  172  A    between atoms: _377  and  _379
REMARK  173  A    between atoms: _379  and  _380
REMARK  174  A    between atoms: _379  and  _382
REMARK  175  A    between atoms: _382  and  _383
REMARK  176  A    between atoms: _388  and  _389
REMARK  177  A    between atoms: _391  and  _393
REMARK  178  A    between atoms: _393  and  _394
REMARK  179  A    between atoms: _398  and  _399
REMARK  180  A    between atoms: _404  and  _406
REMARK  181  A    between atoms: _406  and  _407
REMARK  182  A    between atoms: _409  and  _411
REMARK  183  A    between atoms: _411  and  _412
REMARK  184  A    between atoms: _414  and  _416
REMARK  185  A    between atoms: _416  and  _417
REMARK  186  A    between atoms: _416  and  _419
REMARK  187  A    between atoms: _419  and  _420
REMARK  188  A    between atoms: _420  and  _421
REMARK  189  A    between atoms: _424  and  _426
REMARK  190  A    between atoms: _426  and  _427
REMARK  191  A    between atoms: _426  and  _429
REMARK  192  A    between atoms: _429  and  _430
REMARK  193  A    between atoms: _430  and  _431
REMARK  194  A    between atoms: _433  and  _435
REMARK  195  A    between atoms: _435  and  _436
REMARK  196  A    between atoms: _435  and  _438
REMARK  197  A    between atoms: _438  and  _439
REMARK  198  A    between atoms: _445  and  _447
REMARK  199  A    between atoms: _447  and  _448
REMARK  200  A    between atoms: _447  and  _450
REMARK  201  A    between atoms: _450  and  _451
REMARK  202  A    between atoms: _456  and  _457
REMARK  203  A    between atoms: _459  and  _461
REMARK  204  A    between atoms: _461  and  _462
REMARK  205  A    between atoms: _461  and  _464
REMARK  206  A    between atoms: _464  and  _465
REMARK  207  A    between atoms: _468  and  _470
REMARK  208  A    between atoms: _470  and  _471
REMARK  209  A    between atoms: _470  and  _473
REMARK  210  A    between atoms: _473  and  _474
REMARK  211  A    between atoms: _474  and  _475
REMARK  212  A    between atoms: _475  and  _476
REMARK  213  A    between atoms: _476  and  _477
REMARK  214  A    between atoms: _482  and  _483
REMARK  215  A    between atoms: _488  and  _490
REMARK  216  A    between atoms: _490  and  _491
REMARK  217  A    between atoms: _490  and  _493
REMARK  218  A    between atoms: _493  and  _494
REMARK  219  A    between atoms: _494  and  _495
REMARK  220  A    between atoms: _498  and  _500
REMARK  221  A    between atoms: _500  and  _501
REMARK  222  A    between atoms: _500  and  _503
REMARK  223  A    between atoms: _503  and  _504
REMARK  224  A    between atoms: _509  and  _511
REMARK  225  A    between atoms: _511  and  _512
REMARK  226  A    between atoms: _511  and  _514
REMARK  227  A    between atoms: _514  and  _515
REMARK  228  A    between atoms: _518  and  _520
REMARK  229  A    between atoms: _520  and  _521
REMARK  230  A    between atoms: _520  and  _523
REMARK  231  A    between atoms: _523  and  _524
REMARK  232  A    between atoms: _524  and  _525
REMARK  233  A    between atoms: _527  and  _529
REMARK  234  A    between atoms: _529  and  _530
REMARK  235  A    between atoms: _529  and  _532
REMARK  236  A    between atoms: _532  and  _533
REMARK  237  A    between atoms: _536  and  _538
REMARK  238  A    between atoms: _538  and  _539
REMARK  239  A    between atoms: _538  and  _541
REMARK  240  A    between atoms: _541  and  _542
REMARK  241  A    between atoms: _542  and  _543
REMARK  242  A    between atoms: _543  and  _544
REMARK  243  A    between atoms: _544  and  _545
REMARK  244  A    between atoms: _549  and  _551
REMARK  245  A    between atoms: _551  and  _552
REMARK  246  A    between atoms: _551  and  _554
REMARK  247  A    between atoms: _557  and  _559
REMARK  248  A    between atoms: _559  and  _560
REMARK  249  A    between atoms: _559  and  _562
REMARK  250  A    between atoms: _562  and  _563
REMARK  251  A    between atoms: _566  and  _568
REMARK  252  A    between atoms: _568  and  _569
REMARK  253  A    between atoms: _568  and  _571
REMARK  254  A    between atoms: _571  and  _572
REMARK  255  A    between atoms: _575  and  _577
REMARK  256  A    between atoms: _577  and  _578
REMARK  257  A    between atoms: _577  and  _580
REMARK  258  A    between atoms: _580  and  _581
REMARK  259  A    between atoms: _587  and  _589
REMARK  260  A    between atoms: _589  and  _590
REMARK  261  A    between atoms: _592  and  _594
REMARK  262  A    between atoms: _594  and  _595
REMARK  263  A    between atoms: _594  and  _597
REMARK  264  A    between atoms: _597  and  _598
REMARK  265  A    between atoms: _601  and  _603
REMARK  266  A    between atoms: _603  and  _604
REMARK  267  A    between atoms: _607  and  _609
REMARK  268  A    between atoms: _609  and  _610
REMARK  269  A    between atoms: _609  and  _612
REMARK  270  A    between atoms: _614  and  _616
REMARK  271  A    between atoms: _616  and  _617
REMARK  272  A    between atoms: _619  and  _621
REMARK  273  A    between atoms: _621  and  _622
REMARK  274  A    between atoms: _621  and  _624
REMARK  275  A    between atoms: _624  and  _625
REMARK  276  A    between atoms: _631  and  _633
REMARK  277  A    between atoms: _633  and  _634
REMARK  278  A    between atoms: _633  and  _636
REMARK  279  A    between atoms: _636  and  _637
REMARK  280  A    between atoms: _642  and  _643
REMARK                            x       y       z     vdW  Elec       q    Type
REMARK                         _______ _______ _______ _____ _____    ______ ____
ROOT
ATOM      1  O   HOH     1      10.122  43.795  19.182  0.00  0.00    +0.000 OA
ENDROOT
TORSDOF 0
REMARK  Name = ../refined-set-2016/1xh9/1xh9_pocket.pdb
REMARK  280 active torsions:
REMARK  status: ('A' for Active; 'I' for Inactive)
REMARK    1  A    between atoms: _1  and  _3
REMARK    2  A    between atoms: _3  and  _4
REMARK    3  A    between atoms: _3  and  _6
REMARK    4  A    between atoms: _6  and  _7
REMARK    5  A    between atoms: _10  and  _12
REMARK    6  A    between atoms: _12  and  _13
REMARK    7  A    between atoms: _12  and  _15
REMARK    8  A    between atoms: _15  and  _16
REMARK    9  A    between atoms: _19  and  _21
REMARK   10  A    between atoms: _21  and  _22
REMARK   11  A    between atoms: _24  and  _26
REMARK   12  A    between atoms: _26  and  _27
REMARK   13  A    between atoms: _26  and  _29
REMARK   14  A    between atoms: _29  and  _30
REMARK   15  A    between atoms: _33  and  _35
REMARK   16  A    between atoms: _35  and  _36
REMARK   17  A    between atoms: _38  and  _40
REMARK   18  A    between atoms: _40  and  _41
REMARK   19  A    between atoms: _40  and  _43
REMARK   20  A    between atoms: _43  and  _44
REMARK   21  A    between atoms: _46  and  _48
REMARK   22  A    between atoms: _48  and  _49
REMARK   23  A    between atoms: _48  and  _51
REMARK   24  A    between atoms: _51  and  _52
REMARK   25  A    between atoms: _58  and  _60
REMARK   26  A    between atoms: _60  and  _61
REMARK   27  A    between atoms: _63  and  _65
REMARK   28  A    between atoms: _65  and  _66
REMARK   29  A    between atoms: _65  and  _68
REMARK   30  A    between atoms: _68  and  _69
REMARK   31  A    between atoms: _69  and  _70
REMARK   32  A    between atoms: _70  and  _71
REMARK   33  A    between atoms: _80  and  _82
REMARK   34  A    between atoms: _82  and  _83
REMARK   35  A    between atoms: _82  and  _85
REMARK   36  A    between atoms: _88  and  _90
REMARK   37  A    between atoms: _90  and  _91
REMARK   38  A    between atoms: _90  and  _93
REMARK   39  A    between atoms: _93  and  _94
REMARK   40  A    between atoms: _94  and  _95
REMARK   41  A    between atoms: _97  and  _99
REMARK   42  A    between atoms: _99  and  _100
REMARK   43  A    between atoms: _99  and  _102
REMARK   44  A    between atoms: _102  and  _103
REMARK   45  A    between atoms: _106  and  _108
REMARK   46  A    between atoms: _108  and  _109
REMARK   47  A    between atoms: _108  and  _111
REMARK   48  A    between atoms: _111  and  _112
REMARK   49  A    between atoms: _117  and  _118
REMARK   50  A    between atoms: _120  and  _122
REMARK   51  A    between atoms: _122  and  _123
REMARK   52  A    between atoms: _126  and  _128
REMARK   53  A    between atoms: _128  and  _129
REMARK   54  A    between atoms: _128  and  _131
REMARK   55  A    between atoms: _131  and  _132
REMARK   56  A    between atoms: _132  and  _133
REMARK   57  A    between atoms: _135  and  _137
REMARK   58  A    between atoms: _137  and  _138
REMARK   59  A    between atoms: _137  and  _140
REMARK   60  A    between atoms: _140  and  _141
REMARK   61  A    between atoms: _141  and  _142
REMARK   62  A    between atoms: _142  and  _143
REMARK   63  A    between atoms: _143  and  _144
REMARK   64  A    between atoms: _148  and  _150
REMARK   65  A    between atoms: _150  and  _151
REMARK   66  A    between atoms: _150  and  _153
REMARK   67  A    between atoms: _153  and  _154
REMARK   68  A    between atoms: _157  and  _159
REMARK   69  A    between atoms: _159  and  _160
REMARK   70  A    between atoms: _159  and  _162
REMARK   71  A    between atoms: _162  and  _163
REMARK   72  A    between atoms: _166  and  _168
REMARK   73  A    between atoms: _168  and  _169
REMARK   74  A    between atoms: _168  and  _171
REMARK   75  A    between atoms: _171  and  _172
REMARK   76  A    between atoms: _175  and  _177
REMARK   77  A    between atoms: _177  and  _178
REMARK   78  A    between atoms: _177  and  _180
REMARK   79  A    between atoms: _180  and  _181
REMARK   80  A    between atoms: _181  and  _182
REMARK   81  A    between atoms: _182  and  _183
REMARK   82  A    between atoms: _183  and  _184
REMARK   83  A    between atoms: _188  and  _190
REMARK   84  A    between atoms: _190  and  _191
REMARK   85  A    between atoms: _190  and  _193
REMARK   86  A    between atoms: _196  and  _198
REMARK   87  A    between atoms: _198  and  _199
REMARK   88  A    between atoms: _198  and  _201
REMARK   89  A    between atoms: _201  and  _202
REMARK   90  A    between atoms: _205  and  _207
REMARK   91  A    between atoms: _207  and  _208
REMARK   92  A    between atoms: _207  and  _210
REMARK   93  A    between atoms: _210  and  _211
REMARK   94  A    between atoms: _211  and  _212
REMARK   95  A    between atoms: _212  and  _213
REMARK   96  A    between atoms: _213  and  _214
REMARK   97  A    between atoms: _218  and  _220
REMARK   98  A    between atoms: _220  and  _221
REMARK   99  A    between atoms: _220  and  _223
REMARK  100  A    between atoms: _223  and  _224
REMARK  101  A    between atoms: _224  and  _225
REMARK  102  A    between atoms: _228  and  _230
REMARK  103  A    between atoms: _230  and  _231
REMARK  104  A    between atoms: _230  and  _233
REMARK  105  A    between atoms: _233  and  _234
REMARK  106  A    between atoms: _237  and  _239
REMARK  107  A    between atoms: _239  and  _240
REMARK  108  A    between atoms: _239  and  _242
REMARK  109  A    between atoms: _242  and  _243
REMARK  110  A    between atoms: _243  and  _244
REMARK  111  A    between atoms: _247  and  _249
REMARK  112  A    between atoms: _249  and  _250
REMARK  113  A    between atoms: _249  and  _252
REMARK  114  A    between atoms: _252  and  _253
REMARK  115  A    between atoms: _258  and  _260
REMARK  116  A    between atoms: _260  and  _261
REMARK  117  A    between atoms: _260  and  _263
REMARK  118  A    between atoms: _263  and  _264
REMARK  119  A    between atoms: _267  and  _269
REMARK  120  A    between atoms: _269  and  _270
REMARK  121  A    between atoms: _269  and  _272
REMARK  122  A    between atoms: _272  and  _273
REMARK  123  A    between atoms: _276  and  _278
REMARK  124  A    between atoms: _278  and  _279
REMARK  125  A    between atoms: _278  and  _281
REMARK  126  A    between atoms: _281  and  _282
REMARK  127  A    between atoms: _287  and  _289
REMARK  128  A    between atoms: _289  and  _290
REMARK  129  A    between atoms: _289  and  _292
REMARK  130  A    between atoms: _292  and  _293
REMARK  131  A    between atoms: _293  and  _294
REMARK  132  A    between atoms: _297  and  _299
REMARK  133  A    between atoms: _299  and  _300
REMARK  134  A    between atoms: _299  and  _302
REMARK  135  A    between atoms: _302  and  _303
REMARK  136  A    between atoms: _303  and  _304
REMARK  137  A    between atoms: _304  and  _305
REMARK  138  A    between atoms: _305  and  _306
REMARK  139  A    between atoms: _310  and  _312
REMARK  140  A    between atoms: _312  and  _313
REMARK  141  A    between atoms: _312  and  _315
REMARK  142  A    between atoms: _315  and  _316
REMARK  143  A    between atoms: _319  and  _321
REMARK  144  A    between atoms: _321  and  _322
REMARK  145  A    between atoms: _321  and  _324
REMARK  146  A    between atoms: _327  and  _329
REMARK  147  A    between atoms: _329  and  _330
REMARK  148  A    between atoms: _329  and  _332
REMARK  149  A    between atoms: _332  and  _333
REMARK  150  A    between atoms: _333  and  _334
REMARK  151  A    between atoms: _334  and  _335
REMARK  152  A    between atoms: _335  and  _336
REMARK  153  A    between atoms: _340  and  _342
REMARK  154  A    between atoms: _342  and  _343
REMARK  155  A    between atoms: _342  and  _345
REMARK  156  A    between atoms: _345  and  _346
REMARK  157  A    between atoms: _349  and  _351
REMARK  158  A    between atoms: _351  and  _352
REMARK  159  A    between atoms: _351  and  _354
REMARK  160  A    between atoms: _354  and  _355
REMARK  161  A    between atoms: _355  and  _356
REMARK  162  A    between atoms: _358  and  _360
REMARK  163  A    between atoms: _360  and  _361
REMARK  164  A    between atoms: _360  and  _363
REMARK  165  A    between atoms: _363  and  _364
REMARK  166  A    between atoms: _364  and  _365
REMARK  167  A    between atoms: _367  and  _369
REMARK  168  A    between atoms: _369  and  _370
REMARK  169  A    between atoms: _369  and  _372
REMARK  170  A    between atoms: _372  and  _373
REMARK  171  A    between atoms: _373  and  _374
REMARK  172  A    between atoms: _377  and  _379
REMARK  173  A    between atoms: _379  and  _380
REMARK  174  A    between atoms: _379  and  _382
REMARK  175  A    between atoms: _382  and  _383
REMARK  176  A    between atoms: _388  and  _389
REMARK  177  A    between atoms: _391  and  _393
REMARK  178  A    between atoms: _393  and  _394
REMARK  179  A    between atoms: _398  and  _399
REMARK  180  A    between atoms: _404  and  _406
REMARK  181  A    between atoms: _406  and  _407
REMARK  182  A    between atoms: _409  and  _411
REMARK  183  A    between atoms: _411  and  _412
REMARK  184  A    between atoms: _414  and  _416
REMARK  185  A    between atoms: _416  and  _417
REMARK  186  A    between atoms: _416  and  _419
REMARK  187  A    between atoms: _419  and  _420
REMARK  188  A    between atoms: _420  and  _421
REMARK  189  A    between atoms: _424  and  _426
REMARK  190  A    between atoms: _426  and  _427
REMARK  191  A    between atoms: _426  and  _429
REMARK  192  A    between atoms: _429  and  _430
REMARK  193  A    between atoms: _430  and  _431
REMARK  194  A    between atoms: _433  and  _435
REMARK  195  A    between atoms: _435  and  _436
REMARK  196  A    between atoms: _435  and  _438
REMARK  197  A    between atoms: _438  and  _439
REMARK  198  A    between atoms: _445  and  _447
REMARK  199  A    between atoms: _447  and  _448
REMARK  200  A    between atoms: _447  and  _450
REMARK  201  A    between atoms: _450  and  _451
REMARK  202  A    between atoms: _456  and  _457
REMARK  203  A    between atoms: _459  and  _461
REMARK  204  A    between atoms: _461  and  _462
REMARK  205  A    between atoms: _461  and  _464
REMARK  206  A    between atoms: _464  and  _465
REMARK  207  A    between atoms: _468  and  _470
REMARK  208  A    between atoms: _470  and  _471
REMARK  209  A    between atoms: _470  and  _473
REMARK  210  A    between atoms: _473  and  _474
REMARK  211  A    between atoms: _474  and  _475
REMARK  212  A    between atoms: _475  and  _476
REMARK  213  A    between atoms: _476  and  _477
REMARK  214  A    between atoms: _482  and  _483
REMARK  215  A    between atoms: _488  and  _490
REMARK  216  A    between atoms: _490  and  _491
REMARK  217  A    between atoms: _490  and  _493
REMARK  218  A    between atoms: _493  and  _494
REMARK  219  A    between atoms: _494  and  _495
REMARK  220  A    between atoms: _498  and  _500
REMARK  221  A    between atoms: _500  and  _501
REMARK  222  A    between atoms: _500  and  _503
REMARK  223  A    between atoms: _503  and  _504
REMARK  224  A    between atoms: _509  and  _511
REMARK  225  A    between atoms: _511  and  _512
REMARK  226  A    between atoms: _511  and  _514
REMARK  227  A    between atoms: _514  and  _515
REMARK  228  A    between atoms: _518  and  _520
REMARK  229  A    between atoms: _520  and  _521
REMARK  230  A    between atoms: _520  and  _523
REMARK  231  A    between atoms: _523  and  _524
REMARK  232  A    between atoms: _524  and  _525
REMARK  233  A    between atoms: _527  and  _529
REMARK  234  A    between atoms: _529  and  _530
REMARK  235  A    between atoms: _529  and  _532
REMARK  236  A    between atoms: _532  and  _533
REMARK  237  A    between atoms: _536  and  _538
REMARK  238  A    between atoms: _538  and  _539
REMARK  239  A    between atoms: _538  and  _541
REMARK  240  A    between atoms: _541  and  _542
REMARK  241  A    between atoms: _542  and  _543
REMARK  242  A    between atoms: _543  and  _544
REMARK  243  A    between atoms: _544  and  _545
REMARK  244  A    between atoms: _549  and  _551
REMARK  245  A    between atoms: _551  and  _552
REMARK  246  A    between atoms: _551  and  _554
REMARK  247  A    between atoms: _557  and  _559
REMARK  248  A    between atoms: _559  and  _560
REMARK  249  A    between atoms: _559  and  _562
REMARK  250  A    between atoms: _562  and  _563
REMARK  251  A    between atoms: _566  and  _568
REMARK  252  A    between atoms: _568  and  _569
REMARK  253  A    between atoms: _568  and  _571
REMARK  254  A    between atoms: _571  and  _572
REMARK  255  A    between atoms: _575  and  _577
REMARK  256  A    between atoms: _577  and  _578
REMARK  257  A    between atoms: _577  and  _580
REMARK  258  A    between atoms: _580  and  _581
REMARK  259  A    between atoms: _587  and  _589
REMARK  260  A    between atoms: _589  and  _590
REMARK  261  A    between atoms: _592  and  _594
REMARK  262  A    between atoms: _594  and  _595
REMARK  263  A    between atoms: _594  and  _597
REMARK  264  A    between atoms: _597  and  _598
REMARK  265  A    between atoms: _601  and  _603
REMARK  266  A    between atoms: _603  and  _604
REMARK  267  A    between atoms: _607  and  _609
REMARK  268  A    between atoms: _609  and  _610
REMARK  269  A    between atoms: _609  and  _612
REMARK  270  A    between atoms: _614  and  _616
REMARK  271  A    between atoms: _616  and  _617
REMARK  272  A    between atoms: _619  and  _621
REMARK  273  A    between atoms: _621  and  _622
REMARK  274  A    between atoms: _621  and  _624
REMARK  275  A    between atoms: _624  and  _625
REMARK  276  A    between atoms: _631  and  _633
REMARK  277  A    between atoms: _633  and  _634
REMARK  278  A    between atoms: _633  and  _636
REMARK  279  A    between atoms: _636  and  _637
REMARK  280  A    between atoms: _642  and  _643
REMARK                            x       y       z     vdW  Elec       q    Type
REMARK                         _______ _______ _______ _____ _____    ______ ____
ROOT
ATOM      1  O   HOH     1      11.391  43.075  -2.076  0.00  0.00    +0.000 OA
ENDROOT
TORSDOF 0
