REMARK  Name = ../refined-set-2016/4ygf/4ygf_pocket.pdb
REMARK  145 active torsions:
REMARK  status: ('A' for Active; 'I' for Inactive)
REMARK    1  A    between atoms: _1  and  _3
REMARK    2  A    between atoms: _3  and  _4
REMARK    3  A    between atoms: _3  and  _6
REMARK    4  A    between atoms: _6  and  _7
REMARK    5  A    between atoms: _17  and  _19
REMARK    6  A    between atoms: _19  and  _20
REMARK    7  A    between atoms: _19  and  _22
REMARK    8  A    between atoms: _22  and  _23
REMARK    9  A    between atoms: _28  and  _29
REMARK   10  A    between atoms: _31  and  _33
REMARK   11  A    between atoms: _33  and  _34
REMARK   12  A    between atoms: _33  and  _36
REMARK   13  A    between atoms: _36  and  _37
REMARK   14  A    between atoms: _40  and  _41
REMARK   15  A    between atoms: _46  and  _48
REMARK   16  A    between atoms: _48  and  _49
REMARK   17  A    between atoms: _48  and  _51
REMARK   18  A    between atoms: _51  and  _52
REMARK   19  A    between atoms: _55  and  _57
REMARK   20  A    between atoms: _57  and  _58
REMARK   21  A    between atoms: _57  and  _60
REMARK   22  A    between atoms: _60  and  _61
REMARK   23  A    between atoms: _66  and  _68
REMARK   24  A    between atoms: _68  and  _69
REMARK   25  A    between atoms: _68  and  _71
REMARK   26  A    between atoms: _71  and  _72
REMARK   27  A    between atoms: _75  and  _77
REMARK   28  A    between atoms: _77  and  _78
REMARK   29  A    between atoms: _77  and  _80
REMARK   30  A    between atoms: _80  and  _81
REMARK   31  A    between atoms: _81  and  _82
REMARK   32  A    between atoms: _82  and  _83
REMARK   33  A    between atoms: _83  and  _84
REMARK   34  A    between atoms: _88  and  _90
REMARK   35  A    between atoms: _90  and  _91
REMARK   36  A    between atoms: _90  and  _93
REMARK   37  A    between atoms: _93  and  _94
REMARK   38  A    between atoms: _97  and  _99
REMARK   39  A    between atoms: _99  and  _100
REMARK   40  A    between atoms: _99  and  _102
REMARK   41  A    between atoms: _102  and  _103
REMARK   42  A    between atoms: _108  and  _110
REMARK   43  A    between atoms: _110  and  _111
REMARK   44  A    between atoms: _110  and  _113
REMARK   45  A    between atoms: _116  and  _118
REMARK   46  A    between atoms: _129  and  _132
REMARK   47  A    between atoms: _132  and  _133
REMARK   48  A    between atoms: _141  and  _142
REMARK   49  A    between atoms: _150  and  _152
REMARK   50  A    between atoms: _152  and  _153
REMARK   51  A    between atoms: _152  and  _155
REMARK   52  A    between atoms: _155  and  _156
REMARK   53  A    between atoms: _156  and  _157
REMARK   54  A    between atoms: _160  and  _162
REMARK   55  A    between atoms: _162  and  _163
REMARK   56  A    between atoms: _162  and  _165
REMARK   57  A    between atoms: _165  and  _166
REMARK   58  A    between atoms: _172  and  _174
REMARK   59  A    between atoms: _174  and  _175
REMARK   60  A    between atoms: _174  and  _177
REMARK   61  A    between atoms: _177  and  _178
REMARK   62  A    between atoms: _180  and  _182
REMARK   63  A    between atoms: _182  and  _183
REMARK   64  A    between atoms: _186  and  _188
REMARK   65  A    between atoms: _188  and  _189
REMARK   66  A    between atoms: _188  and  _191
REMARK   67  A    between atoms: _191  and  _192
REMARK   68  A    between atoms: _193  and  ZN_401
REMARK   69  A    between atoms: _197  and  _199
REMARK   70  A    between atoms: _199  and  _200
REMARK   71  A    between atoms: _199  and  _202
REMARK   72  A    between atoms: _202  and  _203
REMARK   73  A    between atoms: _209  and  _211
REMARK   74  A    between atoms: _211  and  _212
REMARK   75  A    between atoms: _211  and  _214
REMARK   76  A    between atoms: _217  and  _219
REMARK   77  A    between atoms: _219  and  _220
REMARK   78  A    between atoms: _219  and  _222
REMARK   79  A    between atoms: _222  and  _223
REMARK   80  A    between atoms: _228  and  _230
REMARK   81  A    between atoms: _230  and  _231
REMARK   82  A    between atoms: _230  and  _233
REMARK   83  A    between atoms: _233  and  _234
REMARK   84  A    between atoms: _234  and  _235
REMARK   85  A    between atoms: _235  and  _236
REMARK   86  A    between atoms: _236  and  _237
REMARK   87  A    between atoms: _241  and  _243
REMARK   88  A    between atoms: _243  and  _244
REMARK   89  A    between atoms: _243  and  _246
REMARK   90  A    between atoms: _246  and  _247
REMARK   91  A    between atoms: _250  and  _252
REMARK   92  A    between atoms: _252  and  _253
REMARK   93  A    between atoms: _252  and  _255
REMARK   94  A    between atoms: _255  and  _256
REMARK   95  A    between atoms: _259  and  _261
REMARK   96  A    between atoms: _261  and  _262
REMARK   97  A    between atoms: _261  and  _264
REMARK   98  A    between atoms: _267  and  _269
REMARK   99  A    between atoms: _269  and  _270
REMARK  100  A    between atoms: _269  and  _272
REMARK  101  A    between atoms: _272  and  _273
REMARK  102  A    between atoms: _276  and  _278
REMARK  103  A    between atoms: _278  and  _279
REMARK  104  A    between atoms: _282  and  _284
REMARK  105  A    between atoms: _284  and  _285
REMARK  106  A    between atoms: _287  and  _289
REMARK  107  A    between atoms: _289  and  _290
REMARK  108  A    between atoms: _289  and  _292
REMARK  109  A    between atoms: _292  and  _293
REMARK  110  A    between atoms: _295  and  _297
REMARK  111  A    between atoms: _297  and  _298
REMARK  112  A    between atoms: _297  and  _300
REMARK  113  A    between atoms: _300  and  _301
REMARK  114  A    between atoms: _304  and  _306
REMARK  115  A    between atoms: _306  and  _307
REMARK  116  A    between atoms: _306  and  _309
REMARK  117  A    between atoms: _309  and  _310
REMARK  118  A    between atoms: _313  and  _315
REMARK  119  A    between atoms: _315  and  _316
REMARK  120  A    between atoms: _320  and  _321
REMARK  121  A    between atoms: _327  and  _328
REMARK  122  A    between atoms: _333  and  _335
REMARK  123  A    between atoms: _335  and  _336
REMARK  124  A    between atoms: _335  and  _338
REMARK  125  A    between atoms: _340  and  _342
REMARK  126  A    between atoms: _342  and  _343
REMARK  127  A    between atoms: _342  and  _345
REMARK  128  A    between atoms: _345  and  _346
REMARK  129  A    between atoms: _349  and  _351
REMARK  130  A    between atoms: _351  and  _352
REMARK  131  A    between atoms: _351  and  _354
REMARK  132  A    between atoms: _357  and  _359
REMARK  133  A    between atoms: _359  and  _360
REMARK  134  A    between atoms: _359  and  _362
REMARK  135  A    between atoms: _362  and  _363
REMARK  136  A    between atoms: _373  and  _375
REMARK  137  A    between atoms: _375  and  _376
REMARK  138  A    between atoms: _375  and  _378
REMARK  139  A    between atoms: _378  and  _379
REMARK  140  A    between atoms: _384  and  _386
REMARK  141  A    between atoms: _386  and  _387
REMARK  142  A    between atoms: _386  and  _389
REMARK  143  A    between atoms: _389  and  _390
REMARK  144  A    between atoms: _390  and  _391
REMARK  145  A    between atoms: _391  and  _392
REMARK                            x       y       z     vdW  Elec       q    Type
REMARK                         _______ _______ _______ _____ _____    ______ ____
ROOT
ATOM      1  CG  TRP A   1      -4.417 -37.481 -86.085  0.00  0.00    -0.002 A 
ATOM      2  CD2 TRP A   1      -4.312 -37.737 -84.676  0.00  0.00    +0.013 A 
ATOM      3  CE3 TRP A   1      -3.510 -37.226 -83.651  0.00  0.00    +0.001 A 
ATOM      4  CZ3 TRP A   1      -3.652 -37.744 -82.384  0.00  0.00    +0.000 A 
ATOM      5  CH2 TRP A   1      -4.575 -38.753 -82.111  0.00  0.00    +0.001 A 
ATOM      6  CZ2 TRP A   1      -5.378 -39.268 -83.083  0.00  0.00    +0.017 A 
ATOM      7  CE2 TRP A   1      -5.234 -38.757 -84.369  0.00  0.00    +0.056 A 
ATOM      8  NE1 TRP A   1      -5.890 -39.077 -85.522  0.00  0.00    -0.352 N 
ATOM      9  HE1 TRP A   1      -6.635 -39.797 -85.615  0.00  0.00    +0.166 HD
ATOM     10  CD1 TRP A   1      -5.407 -38.294 -86.537  0.00  0.00    +0.068 A 
ENDROOT
BRANCH   1  11
ATOM     11  CB  TRP A   1      -3.669 -36.437 -86.888  0.00  0.00    +0.053 C 
BRANCH  11  12
ATOM     12  CA  TRP A   1      -2.316 -36.811 -87.542  0.00  0.00    +0.137 C 
BRANCH  12  13
ATOM     13  N   TRP A   1      -2.483 -37.720 -88.700  0.00  0.00    -0.239 NA
ATOM     14  H   TRP A   1      -3.429 -37.814 -89.122  0.00  0.00    +0.142 HD
ENDBRANCH  12  13
BRANCH  12  15
ATOM     15  C   TRP A   1      -1.371 -37.365 -86.487  0.00  0.00    +0.224 C 
ATOM     16  O   TRP A   1      -1.409 -38.551 -86.190  0.00  0.00    -0.287 OA
ENDBRANCH  12  15
ENDBRANCH  11  12
ENDBRANCH   1  11
TORSDOF 4
REMARK  Name = ../refined-set-2016/4ygf/4ygf_pocket.pdb
REMARK  145 active torsions:
REMARK  status: ('A' for Active; 'I' for Inactive)
REMARK    1  A    between atoms: _1  and  _3
REMARK    2  A    between atoms: _3  and  _4
REMARK    3  A    between atoms: _3  and  _6
REMARK    4  A    between atoms: _6  and  _7
REMARK    5  A    between atoms: _17  and  _19
REMARK    6  A    between atoms: _19  and  _20
REMARK    7  A    between atoms: _19  and  _22
REMARK    8  A    between atoms: _22  and  _23
REMARK    9  A    between atoms: _28  and  _29
REMARK   10  A    between atoms: _31  and  _33
REMARK   11  A    between atoms: _33  and  _34
REMARK   12  A    between atoms: _33  and  _36
REMARK   13  A    between atoms: _36  and  _37
REMARK   14  A    between atoms: _40  and  _41
REMARK   15  A    between atoms: _46  and  _48
REMARK   16  A    between atoms: _48  and  _49
REMARK   17  A    between atoms: _48  and  _51
REMARK   18  A    between atoms: _51  and  _52
REMARK   19  A    between atoms: _55  and  _57
REMARK   20  A    between atoms: _57  and  _58
REMARK   21  A    between atoms: _57  and  _60
REMARK   22  A    between atoms: _60  and  _61
REMARK   23  A    between atoms: _66  and  _68
REMARK   24  A    between atoms: _68  and  _69
REMARK   25  A    between atoms: _68  and  _71
REMARK   26  A    between atoms: _71  and  _72
REMARK   27  A    between atoms: _75  and  _77
REMARK   28  A    between atoms: _77  and  _78
REMARK   29  A    between atoms: _77  and  _80
REMARK   30  A    between atoms: _80  and  _81
REMARK   31  A    between atoms: _81  and  _82
REMARK   32  A    between atoms: _82  and  _83
REMARK   33  A    between atoms: _83  and  _84
REMARK   34  A    between atoms: _88  and  _90
REMARK   35  A    between atoms: _90  and  _91
REMARK   36  A    between atoms: _90  and  _93
REMARK   37  A    between atoms: _93  and  _94
REMARK   38  A    between atoms: _97  and  _99
REMARK   39  A    between atoms: _99  and  _100
REMARK   40  A    between atoms: _99  and  _102
REMARK   41  A    between atoms: _102  and  _103
REMARK   42  A    between atoms: _108  and  _110
REMARK   43  A    between atoms: _110  and  _111
REMARK   44  A    between atoms: _110  and  _113
REMARK   45  A    between atoms: _116  and  _118
REMARK   46  A    between atoms: _129  and  _132
REMARK   47  A    between atoms: _132  and  _133
REMARK   48  A    between atoms: _141  and  _142
REMARK   49  A    between atoms: _150  and  _152
REMARK   50  A    between atoms: _152  and  _153
REMARK   51  A    between atoms: _152  and  _155
REMARK   52  A    between atoms: _155  and  _156
REMARK   53  A    between atoms: _156  and  _157
REMARK   54  A    between atoms: _160  and  _162
REMARK   55  A    between atoms: _162  and  _163
REMARK   56  A    between atoms: _162  and  _165
REMARK   57  A    between atoms: _165  and  _166
REMARK   58  A    between atoms: _172  and  _174
REMARK   59  A    between atoms: _174  and  _175
REMARK   60  A    between atoms: _174  and  _177
REMARK   61  A    between atoms: _177  and  _178
REMARK   62  A    between atoms: _180  and  _182
REMARK   63  A    between atoms: _182  and  _183
REMARK   64  A    between atoms: _186  and  _188
REMARK   65  A    between atoms: _188  and  _189
REMARK   66  A    between atoms: _188  and  _191
REMARK   67  A    between atoms: _191  and  _192
REMARK   68  A    between atoms: _193  and  ZN_401
REMARK   69  A    between atoms: _197  and  _199
REMARK   70  A    between atoms: _199  and  _200
REMARK   71  A    between atoms: _199  and  _202
REMARK   72  A    between atoms: _202  and  _203
REMARK   73  A    between atoms: _209  and  _211
REMARK   74  A    between atoms: _211  and  _212
REMARK   75  A    between atoms: _211  and  _214
REMARK   76  A    between atoms: _217  and  _219
REMARK   77  A    between atoms: _219  and  _220
REMARK   78  A    between atoms: _219  and  _222
REMARK   79  A    between atoms: _222  and  _223
REMARK   80  A    between atoms: _228  and  _230
REMARK   81  A    between atoms: _230  and  _231
REMARK   82  A    between atoms: _230  and  _233
REMARK   83  A    between atoms: _233  and  _234
REMARK   84  A    between atoms: _234  and  _235
REMARK   85  A    between atoms: _235  and  _236
REMARK   86  A    between atoms: _236  and  _237
REMARK   87  A    between atoms: _241  and  _243
REMARK   88  A    between atoms: _243  and  _244
REMARK   89  A    between atoms: _243  and  _246
REMARK   90  A    between atoms: _246  and  _247
REMARK   91  A    between atoms: _250  and  _252
REMARK   92  A    between atoms: _252  and  _253
REMARK   93  A    between atoms: _252  and  _255
REMARK   94  A    between atoms: _255  and  _256
REMARK   95  A    between atoms: _259  and  _261
REMARK   96  A    between atoms: _261  and  _262
REMARK   97  A    between atoms: _261  and  _264
REMARK   98  A    between atoms: _267  and  _269
REMARK   99  A    between atoms: _269  and  _270
REMARK  100  A    between atoms: _269  and  _272
REMARK  101  A    between atoms: _272  and  _273
REMARK  102  A    between atoms: _276  and  _278
REMARK  103  A    between atoms: _278  and  _279
REMARK  104  A    between atoms: _282  and  _284
REMARK  105  A    between atoms: _284  and  _285
REMARK  106  A    between atoms: _287  and  _289
REMARK  107  A    between atoms: _289  and  _290
REMARK  108  A    between atoms: _289  and  _292
REMARK  109  A    between atoms: _292  and  _293
REMARK  110  A    between atoms: _295  and  _297
REMARK  111  A    between atoms: _297  and  _298
REMARK  112  A    between atoms: _297  and  _300
REMARK  113  A    between atoms: _300  and  _301
REMARK  114  A    between atoms: _304  and  _306
REMARK  115  A    between atoms: _306  and  _307
REMARK  116  A    between atoms: _306  and  _309
REMARK  117  A    between atoms: _309  and  _310
REMARK  118  A    between atoms: _313  and  _315
REMARK  119  A    between atoms: _315  and  _316
REMARK  120  A    between atoms: _320  and  _321
REMARK  121  A    between atoms: _327  and  _328
REMARK  122  A    between atoms: _333  and  _335
REMARK  123  A    between atoms: _335  and  _336
REMARK  124  A    between atoms: _335  and  _338
REMARK  125  A    between atoms: _340  and  _342
REMARK  126  A    between atoms: _342  and  _343
REMARK  127  A    between atoms: _342  and  _345
REMARK  128  A    between atoms: _345  and  _346
REMARK  129  A    between atoms: _349  and  _351
REMARK  130  A    between atoms: _351  and  _352
REMARK  131  A    between atoms: _351  and  _354
REMARK  132  A    between atoms: _357  and  _359
REMARK  133  A    between atoms: _359  and  _360
REMARK  134  A    between atoms: _359  and  _362
REMARK  135  A    between atoms: _362  and  _363
REMARK  136  A    between atoms: _373  and  _375
REMARK  137  A    between atoms: _375  and  _376
REMARK  138  A    between atoms: _375  and  _378
REMARK  139  A    between atoms: _378  and  _379
REMARK  140  A    between atoms: _384  and  _386
REMARK  141  A    between atoms: _386  and  _387
REMARK  142  A    between atoms: _386  and  _389
REMARK  143  A    between atoms: _389  and  _390
REMARK  144  A    between atoms: _390  and  _391
REMARK  145  A    between atoms: _391  and  _392
REMARK                            x       y       z     vdW  Elec       q    Type
REMARK                         _______ _______ _______ _____ _____    ______ ____
ROOT
ATOM      1  CG  TYR A   1       0.452 -36.173 -80.066  0.00  0.00    -0.020 A 
ATOM      2  CD2 TYR A   1      -0.361 -35.396 -79.252  0.00  0.00    -0.001 A 
ATOM      3  CE2 TYR A   1      -1.601 -35.844 -78.826  0.00  0.00    +0.036 A 
ATOM      4  CZ  TYR A   1      -2.043 -37.078 -79.228  0.00  0.00    +0.134 A 
ATOM      5  CE1 TYR A   1      -1.254 -37.872 -80.047  0.00  0.00    +0.036 A 
ATOM      6  CD1 TYR A   1      -0.022 -37.405 -80.477  0.00  0.00    -0.001 A 
ENDROOT
BRANCH   4   7
ATOM      7  OH  TYR A   1      -3.272 -37.526 -78.807  0.00  0.00    -0.506 OA
ATOM      8  HH  TYR A   1      -3.284 -37.572 -77.818  0.00  0.00    +0.292 HD
ENDBRANCH   4   7
BRANCH   1   9
ATOM      9  CB  TYR A   1       1.803 -35.659 -80.512  0.00  0.00    +0.051 C 
BRANCH   9  10
ATOM     10  CA  TYR A   1       1.907 -35.093 -81.928  0.00  0.00    +0.137 C 
BRANCH  10  11
ATOM     11  N   TYR A   1       1.571 -36.103 -82.935  0.00  0.00    -0.239 NA
ATOM     12  H   TYR A   1       2.074 -37.014 -82.933  0.00  0.00    +0.142 HD
ENDBRANCH  10  11
BRANCH  10  13
ATOM     13  C   TYR A   1       3.313 -34.459 -82.073  0.00  0.00    +0.224 C 
ATOM     14  O   TYR A   1       3.756 -33.751 -81.168  0.00  0.00    -0.287 OA
ENDBRANCH  10  13
ENDBRANCH   9  10
ENDBRANCH   1   9
TORSDOF 5
REMARK  Name = ../refined-set-2016/4ygf/4ygf_pocket.pdb
REMARK  145 active torsions:
REMARK  status: ('A' for Active; 'I' for Inactive)
REMARK    1  A    between atoms: _1  and  _3
REMARK    2  A    between atoms: _3  and  _4
REMARK    3  A    between atoms: _3  and  _6
REMARK    4  A    between atoms: _6  and  _7
REMARK    5  A    between atoms: _17  and  _19
REMARK    6  A    between atoms: _19  and  _20
REMARK    7  A    between atoms: _19  and  _22
REMARK    8  A    between atoms: _22  and  _23
REMARK    9  A    between atoms: _28  and  _29
REMARK   10  A    between atoms: _31  and  _33
REMARK   11  A    between atoms: _33  and  _34
REMARK   12  A    between atoms: _33  and  _36
REMARK   13  A    between atoms: _36  and  _37
REMARK   14  A    between atoms: _40  and  _41
REMARK   15  A    between atoms: _46  and  _48
REMARK   16  A    between atoms: _48  and  _49
REMARK   17  A    between atoms: _48  and  _51
REMARK   18  A    between atoms: _51  and  _52
REMARK   19  A    between atoms: _55  and  _57
REMARK   20  A    between atoms: _57  and  _58
REMARK   21  A    between atoms: _57  and  _60
REMARK   22  A    between atoms: _60  and  _61
REMARK   23  A    between atoms: _66  and  _68
REMARK   24  A    between atoms: _68  and  _69
REMARK   25  A    between atoms: _68  and  _71
REMARK   26  A    between atoms: _71  and  _72
REMARK   27  A    between atoms: _75  and  _77
REMARK   28  A    between atoms: _77  and  _78
REMARK   29  A    between atoms: _77  and  _80
REMARK   30  A    between atoms: _80  and  _81
REMARK   31  A    between atoms: _81  and  _82
REMARK   32  A    between atoms: _82  and  _83
REMARK   33  A    between atoms: _83  and  _84
REMARK   34  A    between atoms: _88  and  _90
REMARK   35  A    between atoms: _90  and  _91
REMARK   36  A    between atoms: _90  and  _93
REMARK   37  A    between atoms: _93  and  _94
REMARK   38  A    between atoms: _97  and  _99
REMARK   39  A    between atoms: _99  and  _100
REMARK   40  A    between atoms: _99  and  _102
REMARK   41  A    between atoms: _102  and  _103
REMARK   42  A    between atoms: _108  and  _110
REMARK   43  A    between atoms: _110  and  _111
REMARK   44  A    between atoms: _110  and  _113
REMARK   45  A    between atoms: _116  and  _118
REMARK   46  A    between atoms: _129  and  _132
REMARK   47  A    between atoms: _132  and  _133
REMARK   48  A    between atoms: _141  and  _142
REMARK   49  A    between atoms: _150  and  _152
REMARK   50  A    between atoms: _152  and  _153
REMARK   51  A    between atoms: _152  and  _155
REMARK   52  A    between atoms: _155  and  _156
REMARK   53  A    between atoms: _156  and  _157
REMARK   54  A    between atoms: _160  and  _162
REMARK   55  A    between atoms: _162  and  _163
REMARK   56  A    between atoms: _162  and  _165
REMARK   57  A    between atoms: _165  and  _166
REMARK   58  A    between atoms: _172  and  _174
REMARK   59  A    between atoms: _174  and  _175
REMARK   60  A    between atoms: _174  and  _177
REMARK   61  A    between atoms: _177  and  _178
REMARK   62  A    between atoms: _180  and  _182
REMARK   63  A    between atoms: _182  and  _183
REMARK   64  A    between atoms: _186  and  _188
REMARK   65  A    between atoms: _188  and  _189
REMARK   66  A    between atoms: _188  and  _191
REMARK   67  A    between atoms: _191  and  _192
REMARK   68  A    between atoms: _193  and  ZN_401
REMARK   69  A    between atoms: _197  and  _199
REMARK   70  A    between atoms: _199  and  _200
REMARK   71  A    between atoms: _199  and  _202
REMARK   72  A    between atoms: _202  and  _203
REMARK   73  A    between atoms: _209  and  _211
REMARK   74  A    between atoms: _211  and  _212
REMARK   75  A    between atoms: _211  and  _214
REMARK   76  A    between atoms: _217  and  _219
REMARK   77  A    between atoms: _219  and  _220
REMARK   78  A    between atoms: _219  and  _222
REMARK   79  A    between atoms: _222  and  _223
REMARK   80  A    between atoms: _228  and  _230
REMARK   81  A    between atoms: _230  and  _231
REMARK   82  A    between atoms: _230  and  _233
REMARK   83  A    between atoms: _233  and  _234
REMARK   84  A    between atoms: _234  and  _235
REMARK   85  A    between atoms: _235  and  _236
REMARK   86  A    between atoms: _236  and  _237
REMARK   87  A    between atoms: _241  and  _243
REMARK   88  A    between atoms: _243  and  _244
REMARK   89  A    between atoms: _243  and  _246
REMARK   90  A    between atoms: _246  and  _247
REMARK   91  A    between atoms: _250  and  _252
REMARK   92  A    between atoms: _252  and  _253
REMARK   93  A    between atoms: _252  and  _255
REMARK   94  A    between atoms: _255  and  _256
REMARK   95  A    between atoms: _259  and  _261
REMARK   96  A    between atoms: _261  and  _262
REMARK   97  A    between atoms: _261  and  _264
REMARK   98  A    between atoms: _267  and  _269
REMARK   99  A    between atoms: _269  and  _270
REMARK  100  A    between atoms: _269  and  _272
REMARK  101  A    between atoms: _272  and  _273
REMARK  102  A    between atoms: _276  and  _278
REMARK  103  A    between atoms: _278  and  _279
REMARK  104  A    between atoms: _282  and  _284
REMARK  105  A    between atoms: _284  and  _285
REMARK  106  A    between atoms: _287  and  _289
REMARK  107  A    between atoms: _289  and  _290
REMARK  108  A    between atoms: _289  and  _292
REMARK  109  A    between atoms: _292  and  _293
REMARK  110  A    between atoms: _295  and  _297
REMARK  111  A    between atoms: _297  and  _298
REMARK  112  A    between atoms: _297  and  _300
REMARK  113  A    between atoms: _300  and  _301
REMARK  114  A    between atoms: _304  and  _306
REMARK  115  A    between atoms: _306  and  _307
REMARK  116  A    between atoms: _306  and  _309
REMARK  117  A    between atoms: _309  and  _310
REMARK  118  A    between atoms: _313  and  _315
REMARK  119  A    between atoms: _315  and  _316
REMARK  120  A    between atoms: _320  and  _321
REMARK  121  A    between atoms: _327  and  _328
REMARK  122  A    between atoms: _333  and  _335
REMARK  123  A    between atoms: _335  and  _336
REMARK  124  A    between atoms: _335  and  _338
REMARK  125  A    between atoms: _340  and  _342
REMARK  126  A    between atoms: _342  and  _343
REMARK  127  A    between atoms: _342  and  _345
REMARK  128  A    between atoms: _345  and  _346
REMARK  129  A    between atoms: _349  and  _351
REMARK  130  A    between atoms: _351  and  _352
REMARK  131  A    between atoms: _351  and  _354
REMARK  132  A    between atoms: _357  and  _359
REMARK  133  A    between atoms: _359  and  _360
REMARK  134  A    between atoms: _359  and  _362
REMARK  135  A    between atoms: _362  and  _363
REMARK  136  A    between atoms: _373  and  _375
REMARK  137  A    between atoms: _375  and  _376
REMARK  138  A    between atoms: _375  and  _378
REMARK  139  A    between atoms: _378  and  _379
REMARK  140  A    between atoms: _384  and  _386
REMARK  141  A    between atoms: _386  and  _387
REMARK  142  A    between atoms: _386  and  _389
REMARK  143  A    between atoms: _389  and  _390
REMARK  144  A    between atoms: _390  and  _391
REMARK  145  A    between atoms: _391  and  _392
REMARK                            x       y       z     vdW  Elec       q    Type
REMARK                         _______ _______ _______ _____ _____    ______ ____
ROOT
ATOM      1  C   SER A   1      -8.583 -30.660 -74.804  0.00  0.00    +0.244 C 
ATOM      2  N   PRO A   2      -7.564 -30.722 -73.929  0.00  0.00    -0.273 N 
ATOM      3  CA  PRO A   2      -7.626 -30.521 -72.485  0.00  0.00    +0.140 C 
ATOM      4  CB  PRO A   2      -6.412 -31.305 -71.978  0.00  0.00    +0.030 C 
ATOM      5  CG  PRO A   2      -5.427 -31.145 -73.047  0.00  0.00    +0.024 C 
ATOM      6  CD  PRO A   2      -6.207 -31.125 -74.343  0.00  0.00    +0.094 C 
ATOM      7  O   SER A   1      -8.440 -30.905 -75.995  0.00  0.00    -0.273 OA
ENDROOT
BRANCH   3   8
ATOM      8  C   PRO A   2      -7.499 -29.068 -72.085  0.00  0.00    +0.227 C 
ATOM      9  O   PRO A   2      -7.123 -28.216 -72.879  0.00  0.00    -0.286 OA
ENDBRANCH   3   8
BRANCH   1  10
ATOM     10  CA  SER A   1      -9.959 -30.262 -74.283  0.00  0.00    +0.175 C 
BRANCH  10  11
ATOM     11  N   SER A   1     -10.728 -29.621 -75.355  0.00  0.00    -0.236 NA
ATOM     12  H   SER A   1     -11.029 -30.200 -76.165  0.00  0.00    +0.142 HD
ENDBRANCH  10  11
BRANCH  10  13
ATOM     13  CB  SER A   1     -10.702 -31.487 -73.753  0.00  0.00    +0.163 C 
BRANCH  13  14
ATOM     14  OG  SER A   1     -11.966 -31.124 -73.250  0.00  0.00    -0.380 OA
ATOM     15  H   SER A   1     -11.852 -30.474 -72.512  0.00  0.00    +0.211 HD
ENDBRANCH  13  14
ENDBRANCH  10  13
ENDBRANCH   1  10
TORSDOF 5
REMARK  Name = ../refined-set-2016/4ygf/4ygf_pocket.pdb
REMARK  145 active torsions:
REMARK  status: ('A' for Active; 'I' for Inactive)
REMARK    1  A    between atoms: _1  and  _3
REMARK    2  A    between atoms: _3  and  _4
REMARK    3  A    between atoms: _3  and  _6
REMARK    4  A    between atoms: _6  and  _7
REMARK    5  A    between atoms: _17  and  _19
REMARK    6  A    between atoms: _19  and  _20
REMARK    7  A    between atoms: _19  and  _22
REMARK    8  A    between atoms: _22  and  _23
REMARK    9  A    between atoms: _28  and  _29
REMARK   10  A    between atoms: _31  and  _33
REMARK   11  A    between atoms: _33  and  _34
REMARK   12  A    between atoms: _33  and  _36
REMARK   13  A    between atoms: _36  and  _37
REMARK   14  A    between atoms: _40  and  _41
REMARK   15  A    between atoms: _46  and  _48
REMARK   16  A    between atoms: _48  and  _49
REMARK   17  A    between atoms: _48  and  _51
REMARK   18  A    between atoms: _51  and  _52
REMARK   19  A    between atoms: _55  and  _57
REMARK   20  A    between atoms: _57  and  _58
REMARK   21  A    between atoms: _57  and  _60
REMARK   22  A    between atoms: _60  and  _61
REMARK   23  A    between atoms: _66  and  _68
REMARK   24  A    between atoms: _68  and  _69
REMARK   25  A    between atoms: _68  and  _71
REMARK   26  A    between atoms: _71  and  _72
REMARK   27  A    between atoms: _75  and  _77
REMARK   28  A    between atoms: _77  and  _78
REMARK   29  A    between atoms: _77  and  _80
REMARK   30  A    between atoms: _80  and  _81
REMARK   31  A    between atoms: _81  and  _82
REMARK   32  A    between atoms: _82  and  _83
REMARK   33  A    between atoms: _83  and  _84
REMARK   34  A    between atoms: _88  and  _90
REMARK   35  A    between atoms: _90  and  _91
REMARK   36  A    between atoms: _90  and  _93
REMARK   37  A    between atoms: _93  and  _94
REMARK   38  A    between atoms: _97  and  _99
REMARK   39  A    between atoms: _99  and  _100
REMARK   40  A    between atoms: _99  and  _102
REMARK   41  A    between atoms: _102  and  _103
REMARK   42  A    between atoms: _108  and  _110
REMARK   43  A    between atoms: _110  and  _111
REMARK   44  A    between atoms: _110  and  _113
REMARK   45  A    between atoms: _116  and  _118
REMARK   46  A    between atoms: _129  and  _132
REMARK   47  A    between atoms: _132  and  _133
REMARK   48  A    between atoms: _141  and  _142
REMARK   49  A    between atoms: _150  and  _152
REMARK   50  A    between atoms: _152  and  _153
REMARK   51  A    between atoms: _152  and  _155
REMARK   52  A    between atoms: _155  and  _156
REMARK   53  A    between atoms: _156  and  _157
REMARK   54  A    between atoms: _160  and  _162
REMARK   55  A    between atoms: _162  and  _163
REMARK   56  A    between atoms: _162  and  _165
REMARK   57  A    between atoms: _165  and  _166
REMARK   58  A    between atoms: _172  and  _174
REMARK   59  A    between atoms: _174  and  _175
REMARK   60  A    between atoms: _174  and  _177
REMARK   61  A    between atoms: _177  and  _178
REMARK   62  A    between atoms: _180  and  _182
REMARK   63  A    between atoms: _182  and  _183
REMARK   64  A    between atoms: _186  and  _188
REMARK   65  A    between atoms: _188  and  _189
REMARK   66  A    between atoms: _188  and  _191
REMARK   67  A    between atoms: _191  and  _192
REMARK   68  A    between atoms: _193  and  ZN_401
REMARK   69  A    between atoms: _197  and  _199
REMARK   70  A    between atoms: _199  and  _200
REMARK   71  A    between atoms: _199  and  _202
REMARK   72  A    between atoms: _202  and  _203
REMARK   73  A    between atoms: _209  and  _211
REMARK   74  A    between atoms: _211  and  _212
REMARK   75  A    between atoms: _211  and  _214
REMARK   76  A    between atoms: _217  and  _219
REMARK   77  A    between atoms: _219  and  _220
REMARK   78  A    between atoms: _219  and  _222
REMARK   79  A    between atoms: _222  and  _223
REMARK   80  A    between atoms: _228  and  _230
REMARK   81  A    between atoms: _230  and  _231
REMARK   82  A    between atoms: _230  and  _233
REMARK   83  A    between atoms: _233  and  _234
REMARK   84  A    between atoms: _234  and  _235
REMARK   85  A    between atoms: _235  and  _236
REMARK   86  A    between atoms: _236  and  _237
REMARK   87  A    between atoms: _241  and  _243
REMARK   88  A    between atoms: _243  and  _244
REMARK   89  A    between atoms: _243  and  _246
REMARK   90  A    between atoms: _246  and  _247
REMARK   91  A    between atoms: _250  and  _252
REMARK   92  A    between atoms: _252  and  _253
REMARK   93  A    between atoms: _252  and  _255
REMARK   94  A    between atoms: _255  and  _256
REMARK   95  A    between atoms: _259  and  _261
REMARK   96  A    between atoms: _261  and  _262
REMARK   97  A    between atoms: _261  and  _264
REMARK   98  A    between atoms: _267  and  _269
REMARK   99  A    between atoms: _269  and  _270
REMARK  100  A    between atoms: _269  and  _272
REMARK  101  A    between atoms: _272  and  _273
REMARK  102  A    between atoms: _276  and  _278
REMARK  103  A    between atoms: _278  and  _279
REMARK  104  A    between atoms: _282  and  _284
REMARK  105  A    between atoms: _284  and  _285
REMARK  106  A    between atoms: _287  and  _289
REMARK  107  A    between atoms: _289  and  _290
REMARK  108  A    between atoms: _289  and  _292
REMARK  109  A    between atoms: _292  and  _293
REMARK  110  A    between atoms: _295  and  _297
REMARK  111  A    between atoms: _297  and  _298
REMARK  112  A    between atoms: _297  and  _300
REMARK  113  A    between atoms: _300  and  _301
REMARK  114  A    between atoms: _304  and  _306
REMARK  115  A    between atoms: _306  and  _307
REMARK  116  A    between atoms: _306  and  _309
REMARK  117  A    between atoms: _309  and  _310
REMARK  118  A    between atoms: _313  and  _315
REMARK  119  A    between atoms: _315  and  _316
REMARK  120  A    between atoms: _320  and  _321
REMARK  121  A    between atoms: _327  and  _328
REMARK  122  A    between atoms: _333  and  _335
REMARK  123  A    between atoms: _335  and  _336
REMARK  124  A    between atoms: _335  and  _338
REMARK  125  A    between atoms: _340  and  _342
REMARK  126  A    between atoms: _342  and  _343
REMARK  127  A    between atoms: _342  and  _345
REMARK  128  A    between atoms: _345  and  _346
REMARK  129  A    between atoms: _349  and  _351
REMARK  130  A    between atoms: _351  and  _352
REMARK  131  A    between atoms: _351  and  _354
REMARK  132  A    between atoms: _357  and  _359
REMARK  133  A    between atoms: _359  and  _360
REMARK  134  A    between atoms: _359  and  _362
REMARK  135  A    between atoms: _362  and  _363
REMARK  136  A    between atoms: _373  and  _375
REMARK  137  A    between atoms: _375  and  _376
REMARK  138  A    between atoms: _375  and  _378
REMARK  139  A    between atoms: _378  and  _379
REMARK  140  A    between atoms: _384  and  _386
REMARK  141  A    between atoms: _386  and  _387
REMARK  142  A    between atoms: _386  and  _389
REMARK  143  A    between atoms: _389  and  _390
REMARK  144  A    between atoms: _390  and  _391
REMARK  145  A    between atoms: _391  and  _392
REMARK                            x       y       z     vdW  Elec       q    Type
REMARK                         _______ _______ _______ _____ _____    ______ ____
ROOT
ATOM      1  C   THR A   1      -3.721 -45.799 -81.746  0.00  0.00    +0.241 C 
ATOM      2  O   THR A   1      -3.832 -45.362 -80.616  0.00  0.00    -0.274 OA
ATOM      3  N   HIS A   2      -3.475 -45.036 -82.806  0.00  0.00    -0.298 N 
ATOM      4  H   HIS A   2      -3.318 -45.501 -83.723  0.00  0.00    +0.150 HD
ENDROOT
BRANCH   1   5
ATOM      5  CA  THR A   1      -3.824 -47.296 -81.998  0.00  0.00    +0.172 C 
BRANCH   5   6
ATOM      6  N   THR A   1      -3.074 -48.001 -80.972  0.00  0.00    -0.236 NA
ATOM      7  H   THR A   1      -3.008 -47.584 -80.021  0.00  0.00    +0.142 HD
ENDBRANCH   5   6
BRANCH   5   8
ATOM      8  CB  THR A   1      -5.311 -47.734 -82.027  0.00  0.00    +0.135 C 
ATOM      9  CG2 THR A   1      -5.979 -47.497 -80.671  0.00  0.00    +0.034 C 
BRANCH   8  10
ATOM     10  OG1 THR A   1      -6.018 -47.020 -83.053  0.00  0.00    -0.383 OA
ATOM     11  HG1 THR A   1      -5.969 -46.048 -82.871  0.00  0.00    +0.210 HD
ENDBRANCH   8  10
ENDBRANCH   5   8
ENDBRANCH   1   5
BRANCH   3  12
ATOM     12  CA  HIS A   2      -3.414 -43.571 -82.749  0.00  0.00    +0.143 C 
BRANCH  12  13
ATOM     13  C   HIS A   2      -2.603 -43.069 -81.564  0.00  0.00    +0.227 C 
ATOM     14  O   HIS A   2      -3.077 -42.235 -80.788  0.00  0.00    -0.286 OA
ENDBRANCH  12  13
BRANCH  12  15
ATOM     15  CB  HIS A   2      -4.808 -42.948 -82.696  0.00  0.00    +0.075 C 
BRANCH  15  16
ATOM     16  CG  HIS A   2      -5.600 -43.127 -83.948  0.00  0.00    +0.082 A 
ATOM     17  ND1 HIS A   2      -6.407 -44.220 -84.168  0.00  0.00    -0.227 NA
ATOM     18  CE1 HIS A   2      -6.961 -44.117 -85.363  0.00  0.00    +0.199 A 
ATOM     19  NE2 HIS A   2      -6.515 -43.014 -85.936  0.00  0.00    -0.221 NA
ATOM     20  CD2 HIS A   2      -5.651 -42.385 -85.078  0.00  0.00    +0.115 A 
ENDBRANCH  15  16
ENDBRANCH  12  15
ENDBRANCH   3  12
TORSDOF 8
REMARK  Name = ../refined-set-2016/4ygf/4ygf_pocket.pdb
REMARK  145 active torsions:
REMARK  status: ('A' for Active; 'I' for Inactive)
REMARK    1  A    between atoms: _1  and  _3
REMARK    2  A    between atoms: _3  and  _4
REMARK    3  A    between atoms: _3  and  _6
REMARK    4  A    between atoms: _6  and  _7
REMARK    5  A    between atoms: _17  and  _19
REMARK    6  A    between atoms: _19  and  _20
REMARK    7  A    between atoms: _19  and  _22
REMARK    8  A    between atoms: _22  and  _23
REMARK    9  A    between atoms: _28  and  _29
REMARK   10  A    between atoms: _31  and  _33
REMARK   11  A    between atoms: _33  and  _34
REMARK   12  A    between atoms: _33  and  _36
REMARK   13  A    between atoms: _36  and  _37
REMARK   14  A    between atoms: _40  and  _41
REMARK   15  A    between atoms: _46  and  _48
REMARK   16  A    between atoms: _48  and  _49
REMARK   17  A    between atoms: _48  and  _51
REMARK   18  A    between atoms: _51  and  _52
REMARK   19  A    between atoms: _55  and  _57
REMARK   20  A    between atoms: _57  and  _58
REMARK   21  A    between atoms: _57  and  _60
REMARK   22  A    between atoms: _60  and  _61
REMARK   23  A    between atoms: _66  and  _68
REMARK   24  A    between atoms: _68  and  _69
REMARK   25  A    between atoms: _68  and  _71
REMARK   26  A    between atoms: _71  and  _72
REMARK   27  A    between atoms: _75  and  _77
REMARK   28  A    between atoms: _77  and  _78
REMARK   29  A    between atoms: _77  and  _80
REMARK   30  A    between atoms: _80  and  _81
REMARK   31  A    between atoms: _81  and  _82
REMARK   32  A    between atoms: _82  and  _83
REMARK   33  A    between atoms: _83  and  _84
REMARK   34  A    between atoms: _88  and  _90
REMARK   35  A    between atoms: _90  and  _91
REMARK   36  A    between atoms: _90  and  _93
REMARK   37  A    between atoms: _93  and  _94
REMARK   38  A    between atoms: _97  and  _99
REMARK   39  A    between atoms: _99  and  _100
REMARK   40  A    between atoms: _99  and  _102
REMARK   41  A    between atoms: _102  and  _103
REMARK   42  A    between atoms: _108  and  _110
REMARK   43  A    between atoms: _110  and  _111
REMARK   44  A    between atoms: _110  and  _113
REMARK   45  A    between atoms: _116  and  _118
REMARK   46  A    between atoms: _129  and  _132
REMARK   47  A    between atoms: _132  and  _133
REMARK   48  A    between atoms: _141  and  _142
REMARK   49  A    between atoms: _150  and  _152
REMARK   50  A    between atoms: _152  and  _153
REMARK   51  A    between atoms: _152  and  _155
REMARK   52  A    between atoms: _155  and  _156
REMARK   53  A    between atoms: _156  and  _157
REMARK   54  A    between atoms: _160  and  _162
REMARK   55  A    between atoms: _162  and  _163
REMARK   56  A    between atoms: _162  and  _165
REMARK   57  A    between atoms: _165  and  _166
REMARK   58  A    between atoms: _172  and  _174
REMARK   59  A    between atoms: _174  and  _175
REMARK   60  A    between atoms: _174  and  _177
REMARK   61  A    between atoms: _177  and  _178
REMARK   62  A    between atoms: _180  and  _182
REMARK   63  A    between atoms: _182  and  _183
REMARK   64  A    between atoms: _186  and  _188
REMARK   65  A    between atoms: _188  and  _189
REMARK   66  A    between atoms: _188  and  _191
REMARK   67  A    between atoms: _191  and  _192
REMARK   68  A    between atoms: _193  and  ZN_401
REMARK   69  A    between atoms: _197  and  _199
REMARK   70  A    between atoms: _199  and  _200
REMARK   71  A    between atoms: _199  and  _202
REMARK   72  A    between atoms: _202  and  _203
REMARK   73  A    between atoms: _209  and  _211
REMARK   74  A    between atoms: _211  and  _212
REMARK   75  A    between atoms: _211  and  _214
REMARK   76  A    between atoms: _217  and  _219
REMARK   77  A    between atoms: _219  and  _220
REMARK   78  A    between atoms: _219  and  _222
REMARK   79  A    between atoms: _222  and  _223
REMARK   80  A    between atoms: _228  and  _230
REMARK   81  A    between atoms: _230  and  _231
REMARK   82  A    between atoms: _230  and  _233
REMARK   83  A    between atoms: _233  and  _234
REMARK   84  A    between atoms: _234  and  _235
REMARK   85  A    between atoms: _235  and  _236
REMARK   86  A    between atoms: _236  and  _237
REMARK   87  A    between atoms: _241  and  _243
REMARK   88  A    between atoms: _243  and  _244
REMARK   89  A    between atoms: _243  and  _246
REMARK   90  A    between atoms: _246  and  _247
REMARK   91  A    between atoms: _250  and  _252
REMARK   92  A    between atoms: _252  and  _253
REMARK   93  A    between atoms: _252  and  _255
REMARK   94  A    between atoms: _255  and  _256
REMARK   95  A    between atoms: _259  and  _261
REMARK   96  A    between atoms: _261  and  _262
REMARK   97  A    between atoms: _261  and  _264
REMARK   98  A    between atoms: _267  and  _269
REMARK   99  A    between atoms: _269  and  _270
REMARK  100  A    between atoms: _269  and  _272
REMARK  101  A    between atoms: _272  and  _273
REMARK  102  A    between atoms: _276  and  _278
REMARK  103  A    between atoms: _278  and  _279
REMARK  104  A    between atoms: _282  and  _284
REMARK  105  A    between atoms: _284  and  _285
REMARK  106  A    between atoms: _287  and  _289
REMARK  107  A    between atoms: _289  and  _290
REMARK  108  A    between atoms: _289  and  _292
REMARK  109  A    between atoms: _292  and  _293
REMARK  110  A    between atoms: _295  and  _297
REMARK  111  A    between atoms: _297  and  _298
REMARK  112  A    between atoms: _297  and  _300
REMARK  113  A    between atoms: _300  and  _301
REMARK  114  A    between atoms: _304  and  _306
REMARK  115  A    between atoms: _306  and  _307
REMARK  116  A    between atoms: _306  and  _309
REMARK  117  A    between atoms: _309  and  _310
REMARK  118  A    between atoms: _313  and  _315
REMARK  119  A    between atoms: _315  and  _316
REMARK  120  A    between atoms: _320  and  _321
REMARK  121  A    between atoms: _327  and  _328
REMARK  122  A    between atoms: _333  and  _335
REMARK  123  A    between atoms: _335  and  _336
REMARK  124  A    between atoms: _335  and  _338
REMARK  125  A    between atoms: _340  and  _342
REMARK  126  A    between atoms: _342  and  _343
REMARK  127  A    between atoms: _342  and  _345
REMARK  128  A    between atoms: _345  and  _346
REMARK  129  A    between atoms: _349  and  _351
REMARK  130  A    between atoms: _351  and  _352
REMARK  131  A    between atoms: _351  and  _354
REMARK  132  A    between atoms: _357  and  _359
REMARK  133  A    between atoms: _359  and  _360
REMARK  134  A    between atoms: _359  and  _362
REMARK  135  A    between atoms: _362  and  _363
REMARK  136  A    between atoms: _373  and  _375
REMARK  137  A    between atoms: _375  and  _376
REMARK  138  A    between atoms: _375  and  _378
REMARK  139  A    between atoms: _378  and  _379
REMARK  140  A    between atoms: _384  and  _386
REMARK  141  A    between atoms: _386  and  _387
REMARK  142  A    between atoms: _386  and  _389
REMARK  143  A    between atoms: _389  and  _390
REMARK  144  A    between atoms: _390  and  _391
REMARK  145  A    between atoms: _391  and  _392
REMARK                            x       y       z     vdW  Elec       q    Type
REMARK                         _______ _______ _______ _____ _____    ______ ____
ROOT
ATOM      1  CA  THR A   1      -2.206 -44.847 -77.517  0.00  0.00    +0.160 C 
ENDROOT
BRANCH   1   2
ATOM      2  N   THR A   1      -1.853 -44.421 -78.870  0.00  0.00    -0.237 NA
ATOM      3  H   THR A   1      -2.410 -44.739 -79.689  0.00  0.00    +0.142 HD
ENDBRANCH   1   2
BRANCH   1   4
ATOM      4  CB  THR A   1      -3.602 -44.320 -77.056  0.00  0.00    +0.134 C 
ATOM      5  CG2 THR A   1      -4.711 -45.117 -77.710  0.00  0.00    +0.034 C 
BRANCH   4   6
ATOM      6  OG1 THR A   1      -3.729 -44.405 -75.627  0.00  0.00    -0.383 OA
ATOM      7  HG1 THR A   1      -3.023 -43.858 -75.201  0.00  0.00    +0.210 HD
ENDBRANCH   4   6
ENDBRANCH   1   4
BRANCH   1   8
ATOM      8  C   THR A   1      -2.226 -46.360 -77.403  0.00  0.00    +0.227 C 
ATOM      9  O   THR A   1      -2.304 -47.062 -78.393  0.00  0.00    -0.287 OA
ENDBRANCH   1   8
TORSDOF 4
REMARK  Name = ../refined-set-2016/4ygf/4ygf_pocket.pdb
REMARK  145 active torsions:
REMARK  status: ('A' for Active; 'I' for Inactive)
REMARK    1  A    between atoms: _1  and  _3
REMARK    2  A    between atoms: _3  and  _4
REMARK    3  A    between atoms: _3  and  _6
REMARK    4  A    between atoms: _6  and  _7
REMARK    5  A    between atoms: _17  and  _19
REMARK    6  A    between atoms: _19  and  _20
REMARK    7  A    between atoms: _19  and  _22
REMARK    8  A    between atoms: _22  and  _23
REMARK    9  A    between atoms: _28  and  _29
REMARK   10  A    between atoms: _31  and  _33
REMARK   11  A    between atoms: _33  and  _34
REMARK   12  A    between atoms: _33  and  _36
REMARK   13  A    between atoms: _36  and  _37
REMARK   14  A    between atoms: _40  and  _41
REMARK   15  A    between atoms: _46  and  _48
REMARK   16  A    between atoms: _48  and  _49
REMARK   17  A    between atoms: _48  and  _51
REMARK   18  A    between atoms: _51  and  _52
REMARK   19  A    between atoms: _55  and  _57
REMARK   20  A    between atoms: _57  and  _58
REMARK   21  A    between atoms: _57  and  _60
REMARK   22  A    between atoms: _60  and  _61
REMARK   23  A    between atoms: _66  and  _68
REMARK   24  A    between atoms: _68  and  _69
REMARK   25  A    between atoms: _68  and  _71
REMARK   26  A    between atoms: _71  and  _72
REMARK   27  A    between atoms: _75  and  _77
REMARK   28  A    between atoms: _77  and  _78
REMARK   29  A    between atoms: _77  and  _80
REMARK   30  A    between atoms: _80  and  _81
REMARK   31  A    between atoms: _81  and  _82
REMARK   32  A    between atoms: _82  and  _83
REMARK   33  A    between atoms: _83  and  _84
REMARK   34  A    between atoms: _88  and  _90
REMARK   35  A    between atoms: _90  and  _91
REMARK   36  A    between atoms: _90  and  _93
REMARK   37  A    between atoms: _93  and  _94
REMARK   38  A    between atoms: _97  and  _99
REMARK   39  A    between atoms: _99  and  _100
REMARK   40  A    between atoms: _99  and  _102
REMARK   41  A    between atoms: _102  and  _103
REMARK   42  A    between atoms: _108  and  _110
REMARK   43  A    between atoms: _110  and  _111
REMARK   44  A    between atoms: _110  and  _113
REMARK   45  A    between atoms: _116  and  _118
REMARK   46  A    between atoms: _129  and  _132
REMARK   47  A    between atoms: _132  and  _133
REMARK   48  A    between atoms: _141  and  _142
REMARK   49  A    between atoms: _150  and  _152
REMARK   50  A    between atoms: _152  and  _153
REMARK   51  A    between atoms: _152  and  _155
REMARK   52  A    between atoms: _155  and  _156
REMARK   53  A    between atoms: _156  and  _157
REMARK   54  A    between atoms: _160  and  _162
REMARK   55  A    between atoms: _162  and  _163
REMARK   56  A    between atoms: _162  and  _165
REMARK   57  A    between atoms: _165  and  _166
REMARK   58  A    between atoms: _172  and  _174
REMARK   59  A    between atoms: _174  and  _175
REMARK   60  A    between atoms: _174  and  _177
REMARK   61  A    between atoms: _177  and  _178
REMARK   62  A    between atoms: _180  and  _182
REMARK   63  A    between atoms: _182  and  _183
REMARK   64  A    between atoms: _186  and  _188
REMARK   65  A    between atoms: _188  and  _189
REMARK   66  A    between atoms: _188  and  _191
REMARK   67  A    between atoms: _191  and  _192
REMARK   68  A    between atoms: _193  and  ZN_401
REMARK   69  A    between atoms: _197  and  _199
REMARK   70  A    between atoms: _199  and  _200
REMARK   71  A    between atoms: _199  and  _202
REMARK   72  A    between atoms: _202  and  _203
REMARK   73  A    between atoms: _209  and  _211
REMARK   74  A    between atoms: _211  and  _212
REMARK   75  A    between atoms: _211  and  _214
REMARK   76  A    between atoms: _217  and  _219
REMARK   77  A    between atoms: _219  and  _220
REMARK   78  A    between atoms: _219  and  _222
REMARK   79  A    between atoms: _222  and  _223
REMARK   80  A    between atoms: _228  and  _230
REMARK   81  A    between atoms: _230  and  _231
REMARK   82  A    between atoms: _230  and  _233
REMARK   83  A    between atoms: _233  and  _234
REMARK   84  A    between atoms: _234  and  _235
REMARK   85  A    between atoms: _235  and  _236
REMARK   86  A    between atoms: _236  and  _237
REMARK   87  A    between atoms: _241  and  _243
REMARK   88  A    between atoms: _243  and  _244
REMARK   89  A    between atoms: _243  and  _246
REMARK   90  A    between atoms: _246  and  _247
REMARK   91  A    between atoms: _250  and  _252
REMARK   92  A    between atoms: _252  and  _253
REMARK   93  A    between atoms: _252  and  _255
REMARK   94  A    between atoms: _255  and  _256
REMARK   95  A    between atoms: _259  and  _261
REMARK   96  A    between atoms: _261  and  _262
REMARK   97  A    between atoms: _261  and  _264
REMARK   98  A    between atoms: _267  and  _269
REMARK   99  A    between atoms: _269  and  _270
REMARK  100  A    between atoms: _269  and  _272
REMARK  101  A    between atoms: _272  and  _273
REMARK  102  A    between atoms: _276  and  _278
REMARK  103  A    between atoms: _278  and  _279
REMARK  104  A    between atoms: _282  and  _284
REMARK  105  A    between atoms: _284  and  _285
REMARK  106  A    between atoms: _287  and  _289
REMARK  107  A    between atoms: _289  and  _290
REMARK  108  A    between atoms: _289  and  _292
REMARK  109  A    between atoms: _292  and  _293
REMARK  110  A    between atoms: _295  and  _297
REMARK  111  A    between atoms: _297  and  _298
REMARK  112  A    between atoms: _297  and  _300
REMARK  113  A    between atoms: _300  and  _301
REMARK  114  A    between atoms: _304  and  _306
REMARK  115  A    between atoms: _306  and  _307
REMARK  116  A    between atoms: _306  and  _309
REMARK  117  A    between atoms: _309  and  _310
REMARK  118  A    between atoms: _313  and  _315
REMARK  119  A    between atoms: _315  and  _316
REMARK  120  A    between atoms: _320  and  _321
REMARK  121  A    between atoms: _327  and  _328
REMARK  122  A    between atoms: _333  and  _335
REMARK  123  A    between atoms: _335  and  _336
REMARK  124  A    between atoms: _335  and  _338
REMARK  125  A    between atoms: _340  and  _342
REMARK  126  A    between atoms: _342  and  _343
REMARK  127  A    between atoms: _342  and  _345
REMARK  128  A    between atoms: _345  and  _346
REMARK  129  A    between atoms: _349  and  _351
REMARK  130  A    between atoms: _351  and  _352
REMARK  131  A    between atoms: _351  and  _354
REMARK  132  A    between atoms: _357  and  _359
REMARK  133  A    between atoms: _359  and  _360
REMARK  134  A    between atoms: _359  and  _362
REMARK  135  A    between atoms: _362  and  _363
REMARK  136  A    between atoms: _373  and  _375
REMARK  137  A    between atoms: _375  and  _376
REMARK  138  A    between atoms: _375  and  _378
REMARK  139  A    between atoms: _378  and  _379
REMARK  140  A    between atoms: _384  and  _386
REMARK  141  A    between atoms: _386  and  _387
REMARK  142  A    between atoms: _386  and  _389
REMARK  143  A    between atoms: _389  and  _390
REMARK  144  A    between atoms: _390  and  _391
REMARK  145  A    between atoms: _391  and  _392
REMARK                            x       y       z     vdW  Elec       q    Type
REMARK                         _______ _______ _______ _____ _____    ______ ____
ROOT
ATOM      1  CG  LYS A   1      -8.237 -48.825 -76.818  0.00  0.00    -0.000 C 
ENDROOT
BRANCH   1   2
ATOM      2  CB  LYS A   1      -6.741 -48.754 -76.946  0.00  0.00    +0.025 C 
BRANCH   2   3
ATOM      3  CA  LYS A   1      -5.976 -49.238 -75.727  0.00  0.00    +0.133 C 
BRANCH   3   4
ATOM      4  N   LYS A   1      -4.550 -49.217 -76.003  0.00  0.00    -0.239 NA
ATOM      5  H   LYS A   1      -4.149 -49.852 -76.722  0.00  0.00    +0.142 HD
ENDBRANCH   3   4
BRANCH   3   6
ATOM      6  C   LYS A   1      -6.472 -50.607 -75.345  0.00  0.00    +0.224 C 
ATOM      7  O   LYS A   1      -6.149 -51.587 -76.004  0.00  0.00    -0.287 OA
ENDBRANCH   3   6
ENDBRANCH   2   3
ENDBRANCH   1   2
BRANCH   1   8
ATOM      8  CD  LYS A   1      -8.848 -48.045 -77.944  0.00  0.00    -0.024 C 
BRANCH   8   9
ATOM      9  CE  LYS A   1     -10.307 -48.382 -78.143  0.00  0.00    -0.086 C 
BRANCH   9  10
ATOM     10  NZ  LYS A   1     -10.941 -47.568 -79.226  0.00  0.00    +0.380 N 
ATOM     11  HZ1 LYS A   1     -10.875 -46.559 -78.983  0.00  0.00    -0.089 HD
ATOM     12  HZ2 LYS A   1     -11.941 -47.839 -79.321  0.00  0.00    -0.089 HD
ATOM     13  HZ3 LYS A   1     -10.446 -47.743 -80.124  0.00  0.00    -0.089 HD
ENDBRANCH   9  10
ENDBRANCH   8   9
ENDBRANCH   1   8
TORSDOF 7
REMARK  Name = ../refined-set-2016/4ygf/4ygf_pocket.pdb
REMARK  145 active torsions:
REMARK  status: ('A' for Active; 'I' for Inactive)
REMARK    1  A    between atoms: _1  and  _3
REMARK    2  A    between atoms: _3  and  _4
REMARK    3  A    between atoms: _3  and  _6
REMARK    4  A    between atoms: _6  and  _7
REMARK    5  A    between atoms: _17  and  _19
REMARK    6  A    between atoms: _19  and  _20
REMARK    7  A    between atoms: _19  and  _22
REMARK    8  A    between atoms: _22  and  _23
REMARK    9  A    between atoms: _28  and  _29
REMARK   10  A    between atoms: _31  and  _33
REMARK   11  A    between atoms: _33  and  _34
REMARK   12  A    between atoms: _33  and  _36
REMARK   13  A    between atoms: _36  and  _37
REMARK   14  A    between atoms: _40  and  _41
REMARK   15  A    between atoms: _46  and  _48
REMARK   16  A    between atoms: _48  and  _49
REMARK   17  A    between atoms: _48  and  _51
REMARK   18  A    between atoms: _51  and  _52
REMARK   19  A    between atoms: _55  and  _57
REMARK   20  A    between atoms: _57  and  _58
REMARK   21  A    between atoms: _57  and  _60
REMARK   22  A    between atoms: _60  and  _61
REMARK   23  A    between atoms: _66  and  _68
REMARK   24  A    between atoms: _68  and  _69
REMARK   25  A    between atoms: _68  and  _71
REMARK   26  A    between atoms: _71  and  _72
REMARK   27  A    between atoms: _75  and  _77
REMARK   28  A    between atoms: _77  and  _78
REMARK   29  A    between atoms: _77  and  _80
REMARK   30  A    between atoms: _80  and  _81
REMARK   31  A    between atoms: _81  and  _82
REMARK   32  A    between atoms: _82  and  _83
REMARK   33  A    between atoms: _83  and  _84
REMARK   34  A    between atoms: _88  and  _90
REMARK   35  A    between atoms: _90  and  _91
REMARK   36  A    between atoms: _90  and  _93
REMARK   37  A    between atoms: _93  and  _94
REMARK   38  A    between atoms: _97  and  _99
REMARK   39  A    between atoms: _99  and  _100
REMARK   40  A    between atoms: _99  and  _102
REMARK   41  A    between atoms: _102  and  _103
REMARK   42  A    between atoms: _108  and  _110
REMARK   43  A    between atoms: _110  and  _111
REMARK   44  A    between atoms: _110  and  _113
REMARK   45  A    between atoms: _116  and  _118
REMARK   46  A    between atoms: _129  and  _132
REMARK   47  A    between atoms: _132  and  _133
REMARK   48  A    between atoms: _141  and  _142
REMARK   49  A    between atoms: _150  and  _152
REMARK   50  A    between atoms: _152  and  _153
REMARK   51  A    between atoms: _152  and  _155
REMARK   52  A    between atoms: _155  and  _156
REMARK   53  A    between atoms: _156  and  _157
REMARK   54  A    between atoms: _160  and  _162
REMARK   55  A    between atoms: _162  and  _163
REMARK   56  A    between atoms: _162  and  _165
REMARK   57  A    between atoms: _165  and  _166
REMARK   58  A    between atoms: _172  and  _174
REMARK   59  A    between atoms: _174  and  _175
REMARK   60  A    between atoms: _174  and  _177
REMARK   61  A    between atoms: _177  and  _178
REMARK   62  A    between atoms: _180  and  _182
REMARK   63  A    between atoms: _182  and  _183
REMARK   64  A    between atoms: _186  and  _188
REMARK   65  A    between atoms: _188  and  _189
REMARK   66  A    between atoms: _188  and  _191
REMARK   67  A    between atoms: _191  and  _192
REMARK   68  A    between atoms: _193  and  ZN_401
REMARK   69  A    between atoms: _197  and  _199
REMARK   70  A    between atoms: _199  and  _200
REMARK   71  A    between atoms: _199  and  _202
REMARK   72  A    between atoms: _202  and  _203
REMARK   73  A    between atoms: _209  and  _211
REMARK   74  A    between atoms: _211  and  _212
REMARK   75  A    between atoms: _211  and  _214
REMARK   76  A    between atoms: _217  and  _219
REMARK   77  A    between atoms: _219  and  _220
REMARK   78  A    between atoms: _219  and  _222
REMARK   79  A    between atoms: _222  and  _223
REMARK   80  A    between atoms: _228  and  _230
REMARK   81  A    between atoms: _230  and  _231
REMARK   82  A    between atoms: _230  and  _233
REMARK   83  A    between atoms: _233  and  _234
REMARK   84  A    between atoms: _234  and  _235
REMARK   85  A    between atoms: _235  and  _236
REMARK   86  A    between atoms: _236  and  _237
REMARK   87  A    between atoms: _241  and  _243
REMARK   88  A    between atoms: _243  and  _244
REMARK   89  A    between atoms: _243  and  _246
REMARK   90  A    between atoms: _246  and  _247
REMARK   91  A    between atoms: _250  and  _252
REMARK   92  A    between atoms: _252  and  _253
REMARK   93  A    between atoms: _252  and  _255
REMARK   94  A    between atoms: _255  and  _256
REMARK   95  A    between atoms: _259  and  _261
REMARK   96  A    between atoms: _261  and  _262
REMARK   97  A    between atoms: _261  and  _264
REMARK   98  A    between atoms: _267  and  _269
REMARK   99  A    between atoms: _269  and  _270
REMARK  100  A    between atoms: _269  and  _272
REMARK  101  A    between atoms: _272  and  _273
REMARK  102  A    between atoms: _276  and  _278
REMARK  103  A    between atoms: _278  and  _279
REMARK  104  A    between atoms: _282  and  _284
REMARK  105  A    between atoms: _284  and  _285
REMARK  106  A    between atoms: _287  and  _289
REMARK  107  A    between atoms: _289  and  _290
REMARK  108  A    between atoms: _289  and  _292
REMARK  109  A    between atoms: _292  and  _293
REMARK  110  A    between atoms: _295  and  _297
REMARK  111  A    between atoms: _297  and  _298
REMARK  112  A    between atoms: _297  and  _300
REMARK  113  A    between atoms: _300  and  _301
REMARK  114  A    between atoms: _304  and  _306
REMARK  115  A    between atoms: _306  and  _307
REMARK  116  A    between atoms: _306  and  _309
REMARK  117  A    between atoms: _309  and  _310
REMARK  118  A    between atoms: _313  and  _315
REMARK  119  A    between atoms: _315  and  _316
REMARK  120  A    between atoms: _320  and  _321
REMARK  121  A    between atoms: _327  and  _328
REMARK  122  A    between atoms: _333  and  _335
REMARK  123  A    between atoms: _335  and  _336
REMARK  124  A    between atoms: _335  and  _338
REMARK  125  A    between atoms: _340  and  _342
REMARK  126  A    between atoms: _342  and  _343
REMARK  127  A    between atoms: _342  and  _345
REMARK  128  A    between atoms: _345  and  _346
REMARK  129  A    between atoms: _349  and  _351
REMARK  130  A    between atoms: _351  and  _352
REMARK  131  A    between atoms: _351  and  _354
REMARK  132  A    between atoms: _357  and  _359
REMARK  133  A    between atoms: _359  and  _360
REMARK  134  A    between atoms: _359  and  _362
REMARK  135  A    between atoms: _362  and  _363
REMARK  136  A    between atoms: _373  and  _375
REMARK  137  A    between atoms: _375  and  _376
REMARK  138  A    between atoms: _375  and  _378
REMARK  139  A    between atoms: _378  and  _379
REMARK  140  A    between atoms: _384  and  _386
REMARK  141  A    between atoms: _386  and  _387
REMARK  142  A    between atoms: _386  and  _389
REMARK  143  A    between atoms: _389  and  _390
REMARK  144  A    between atoms: _390  and  _391
REMARK  145  A    between atoms: _391  and  _392
REMARK                            x       y       z     vdW  Elec       q    Type
REMARK                         _______ _______ _______ _____ _____    ______ ____
ROOT
ATOM      1  N   UNK A   6      -8.015 -39.397 -72.224  0.00  0.00    +0.000 N 
ATOM      2  C   UNK A   6      -8.451 -40.090 -71.121  0.00  0.00    +0.000 A 
ATOM      3  C   UNK A   6      -8.076 -39.357 -70.052  0.00  0.00    +0.000 A 
ATOM      4  N   UNK A   6      -7.449 -38.234 -70.526  0.00  0.00    +0.000 NA
ATOM      5  C   UNK A   6      -7.437 -38.275 -71.840  0.00  0.00    +0.000 A 
ENDROOT
BRANCH   1  19
ATOM      6  C   UNK A   4      -6.403 -45.916 -73.074  0.00  0.00    +0.000 C 
ATOM      7  C   UNK A   4      -5.640 -44.910 -72.242  0.00  0.00    +0.000 C 
ATOM      8  O   UNK A   4      -6.149 -44.412 -71.233  0.00  0.00    +0.000 OA
ATOM      9  N   VAL A   5      -4.428 -44.603 -72.682  0.00  0.00    +0.000 N 
ATOM     10  CA  VAL A   5      -3.503 -43.881 -71.840  0.00  0.00    +0.000 C 
ATOM     11  C   VAL A   5      -2.921 -42.673 -72.526  0.00  0.00    +0.000 C 
ATOM     12  N   UNK A   6      -2.545 -41.691 -71.713  0.00  0.00    +0.000 N 
ATOM     13  H   UNK A   6      -2.778 -41.766 -70.702  0.00  0.00    +0.000 HD
ATOM     14  C   UNK A   6      -1.821 -40.515 -72.175  0.00  0.00    +0.000 C 
ATOM     15  C   UNK A   6      -2.698 -39.264 -72.152  0.00  0.00    +0.000 C 
ATOM     16  C   UNK A   6      -3.813 -39.295 -73.136  0.00  0.00    +0.000 A 
ATOM     17  C   UNK A   6      -5.077 -39.763 -73.034  0.00  0.00    +0.000 A 
ATOM     18  N   UNK A   6      -5.692 -39.533 -74.241  0.00  0.00    +0.000 N 
ATOM     19 ZN   UNK A   6      -7.776 -39.995 -74.132  0.00  0.00    +0.000 Zn
ATOM     20  N   UNK A   4      -8.088 -42.053 -74.542  0.00  0.00    +0.000 N 
ATOM     21  C   UNK A   4      -6.964 -42.838 -74.522  0.00  0.00    +0.000 A 
ATOM     22  C   UNK A   4      -7.380 -44.122 -74.508  0.00  0.00    +0.000 A 
ATOM     23  N   UNK A   4      -8.756 -44.086 -74.520  0.00  0.00    +0.000 NA
ATOM     24  C   UNK A   4      -9.155 -42.831 -74.542  0.00  0.00    +0.000 A 
ATOM     25  C   UNK A   6      -4.831 -38.956 -75.057  0.00  0.00    +0.000 A 
ATOM     26  N   UNK A   6      -3.689 -38.797 -74.413  0.00  0.00    +0.000 NA
ATOM     27  O   VAL A   5      -2.791 -42.646 -73.746  0.00  0.00    +0.000 OA
ATOM     28  H   VAL A   5      -4.141 -44.884 -73.641  0.00  0.00    +0.000 HD
ATOM     29  C   UNK A   4      -6.615 -45.394 -74.479  0.00  0.00    +0.000 C 
BRANCH   6  31
ATOM     30  C   UNK A   3      -8.111 -47.411 -72.275  0.00  0.00    +0.000 C 
ATOM     31  N   UNK A   4      -7.666 -46.176 -72.413  0.00  0.00    +0.000 N 
ATOM     32  H   UNK A   4      -8.227 -45.382 -72.044  0.00  0.00    +0.000 HD
ATOM     33  O   UNK A   3      -7.533 -48.371 -72.751  0.00  0.00    +0.000 OA
BRANCH  30  34
ATOM     34  C   UNK A   3      -9.414 -47.587 -71.512  0.00  0.00    +0.000 C 
BRANCH  34  37
ATOM     35  C   ALA A   2     -11.557 -47.865 -72.642  0.00  0.00    +0.000 C 
ATOM     36  O   ALA A   2     -12.041 -46.882 -72.113  0.00  0.00    +0.000 OA
ATOM     37  N   UNK A   3     -10.352 -48.333 -72.339  0.00  0.00    +0.000 N 
ATOM     38  H   UNK A   3     -10.068 -49.264 -72.705  0.00  0.00    +0.000 HD
BRANCH  35  39
ATOM     39  CA  ALA A   2     -12.355 -48.667 -73.649  0.00  0.00    +0.000 C 
BRANCH  39  41
ATOM     40  C   SER A   1     -14.625 -49.232 -74.161  0.00  0.00    +0.000 C 
ATOM     41  N   ALA A   2     -13.770 -48.359 -73.646  0.00  0.00    +0.000 N 
ATOM     42  H   ALA A   2     -14.112 -47.463 -73.244  0.00  0.00    +0.000 HD
ATOM     43  O   SER A   1     -14.275 -50.340 -74.568  0.00  0.00    +0.000 OA
BRANCH  40  44
ATOM     44  CA  SER A   1     -16.082 -48.800 -74.247  0.00  0.00    +0.000 C 
BRANCH  44  45
ATOM     45  N   SER A   1     -16.610 -48.260 -73.001  0.00  0.00    +0.000 NA
ATOM     46  H   SER A   1     -16.500 -47.248 -72.790  0.00  0.00    +0.000 HD
ENDBRANCH  44  45
BRANCH  44  47
ATOM     47  CB  SER A   1     -16.218 -47.782 -75.372  0.00  0.00    +0.000 C 
BRANCH  47  48
ATOM     48  CG  SER A   1     -15.643 -48.289 -76.667  0.00  0.00    +0.000 C 
ATOM     49  OD2 SER A   1     -14.420 -48.165 -76.853  0.00  0.00    +0.000 OA
ATOM     50  OD1 SER A   1     -16.405 -48.821 -77.497  0.00  0.00    +0.000 OA
ENDBRANCH  47  48
ENDBRANCH  44  47
ENDBRANCH  40  44
ENDBRANCH  39  41
BRANCH  39  51
ATOM     51  CB  ALA A   2     -11.796 -48.470 -75.069  0.00  0.00    +0.000 C 
BRANCH  51  52
ATOM     52  CG  ALA A   2     -11.658 -46.996 -75.474  0.00  0.00    +0.000 C 
ATOM     53  OD1 ALA A   2     -10.657 -46.358 -75.175  0.00  0.00    +0.000 OA
ATOM     54  ND2 ALA A   2     -12.644 -46.475 -76.196  0.00  0.00    +0.000 N 
ATOM     55 HD21 ALA A   2     -13.478 -47.051 -76.429  0.00  0.00    +0.000 HD
ATOM     56 HD22 ALA A   2     -12.582 -45.492 -76.528  0.00  0.00    +0.000 HD
ENDBRANCH  51  52
ENDBRANCH  39  51
ENDBRANCH  35  39
ENDBRANCH  34  37
BRANCH  34  57
ATOM     57  C   UNK A   3      -9.135 -48.291 -70.166  0.00  0.00    +0.000 C 
ATOM     58  C   UNK A   3     -10.358 -48.229 -69.272  0.00  0.00    +0.000 C 
ATOM     59  C   UNK A   3      -7.926 -47.672 -69.469  0.00  0.00    +0.000 C 
ENDBRANCH  34  57
ENDBRANCH  30  34
ENDBRANCH   6  31
BRANCH  14  60
ATOM     60  C   UNK A   6      -0.599 -40.274 -71.314  0.00  0.00    +0.000 C 
ATOM     61  O   UNK A   6      -0.666 -40.392 -70.100  0.00  0.00    +0.000 OA
ENDBRANCH  14  60
BRANCH  10  62
ATOM     62  CB  VAL A   5      -2.367 -44.811 -71.398  0.00  0.00    +0.000 C 
BRANCH  62  63
ATOM     63  CG  VAL A   5      -2.822 -45.961 -70.556  0.00  0.00    +0.000 A 
ATOM     64  CD2 VAL A   5      -2.737 -45.904 -69.182  0.00  0.00    +0.000 A 
ATOM     65  CE2 VAL A   5      -3.158 -46.962 -68.411  0.00  0.00    +0.000 A 
ATOM     66  CZ  VAL A   5      -3.674 -48.086 -69.016  0.00  0.00    +0.000 A 
ATOM     67  CE1 VAL A   5      -3.764 -48.149 -70.382  0.00  0.00    +0.000 A 
ATOM     68  CD1 VAL A   5      -3.336 -47.102 -71.143  0.00  0.00    +0.000 A 
ENDBRANCH  62  63
ENDBRANCH  10  62
ENDBRANCH   1  19
BRANCH   2  69
ATOM     69  C   UNK A   6      -9.169 -41.403 -71.223  0.00  0.00    +0.000 C 
BRANCH  69  70
ATOM     70  C   UNK A   6      -9.214 -42.198 -69.920  0.00  0.00    +0.000 C 
BRANCH  70  71
ATOM     71  N   UNK A   6      -7.898 -42.687 -69.550  0.00  0.00    +0.000 N 
ATOM     72  C   ALA A   2      -7.394 -42.407 -68.356  0.00  0.00    +0.000 C 
ATOM     73  O   ALA A   2      -7.974 -41.695 -67.543  0.00  0.00    +0.000 OA
ATOM     74  H   UNK A   6      -7.349 -43.259 -70.223  0.00  0.00    +0.000 HD
BRANCH  72  75
ATOM     75  CA  ALA A   2      -6.051 -43.032 -68.026  0.00  0.00    +0.000 C 
ATOM     76  CB  ALA A   2      -6.235 -44.206 -67.105  0.00  0.00    +0.000 C 
BRANCH  75  77
ATOM     77  N   ALA A   2      -5.183 -42.039 -67.422  0.00  0.00    +0.000 N 
ATOM     78  H   ALA A   2      -5.513 -41.528 -66.579  0.00  0.00    +0.000 HD
ATOM     79  C   SER A   1      -3.979 -41.762 -67.912  0.00  0.00    +0.000 C 
ATOM     80  O   SER A   1      -3.465 -42.381 -68.841  0.00  0.00    +0.000 OA
BRANCH  79  81
ATOM     81  CA  SER A   1      -3.232 -40.632 -67.225  0.00  0.00    +0.000 C 
BRANCH  81  82
ATOM     82  N   SER A   1      -1.803 -40.686 -67.521  0.00  0.00    +0.000 NA
ATOM     83  H   SER A   1      -1.489 -40.938 -68.480  0.00  0.00    +0.000 HD
ENDBRANCH  81  82
BRANCH  81  84
ATOM     84  CB  SER A   1      -3.838 -39.279 -67.641  0.00  0.00    +0.000 C 
BRANCH  84  85
ATOM     85  OG  SER A   1      -3.964 -39.142 -69.046  0.00  0.00    +0.000 OA
ATOM     86  H   SER A   1      -4.357 -38.258 -69.256  0.00  0.00    +0.000 HD
ENDBRANCH  84  85
ENDBRANCH  81  84
ENDBRANCH  79  81
ENDBRANCH  75  77
ENDBRANCH  72  75
ENDBRANCH  70  71
BRANCH  70  87
ATOM     87  C   UNK A   6     -10.170 -43.368 -70.035  0.00  0.00    +0.000 C 
ATOM     88  N   UNK A   4     -11.253 -43.307 -69.271  0.00  0.00    +0.000 N 
ATOM     89  H   UNK A   4     -11.361 -42.507 -68.616  0.00  0.00    +0.000 HD
ATOM     90  O   UNK A   6      -9.929 -44.297 -70.793  0.00  0.00    +0.000 OA
BRANCH  88  91
ATOM     91  C   UNK A   4     -12.292 -44.318 -69.318  0.00  0.00    +0.000 C 
BRANCH  91  92
ATOM     92  C   UNK A   4     -13.383 -43.773 -70.223  0.00  0.00    +0.000 C 
ATOM     93  O   UNK A   4     -14.166 -42.921 -69.809  0.00  0.00    +0.000 OA
ATOM     94  N   VAL A   5     -13.442 -44.289 -71.452  0.00  0.00    +0.000 N 
ATOM     95  H   VAL A   5     -12.845 -45.111 -71.674  0.00  0.00    +0.000 HD
BRANCH  94  96
ATOM     96  CA  VAL A   5     -14.303 -43.754 -72.497  0.00  0.00    +0.000 C 
BRANCH  96  97
ATOM     97  C   VAL A   5     -15.648 -44.473 -72.527  0.00  0.00    +0.000 C 
ATOM     98  N   UNK A   6     -16.724 -43.719 -72.341  0.00  0.00    +0.000 N 
ATOM     99  H   UNK A   6     -16.604 -42.694 -72.210  0.00  0.00    +0.000 HD
ATOM    100  O   VAL A   5     -15.710 -45.677 -72.707  0.00  0.00    +0.000 OA
BRANCH  98 101
ATOM    101  C   UNK A   6     -18.063 -44.277 -72.315  0.00  0.00    +0.000 C 
BRANCH 101 102
ATOM    102  C   UNK A   6     -18.900 -43.633 -73.395  0.00  0.00    +0.000 C 
ATOM    103  O   UNK A   6     -18.677 -42.495 -73.787  0.00  0.00    +0.000 OA
ATOM    104  N   LYS A   7     -19.878 -44.390 -73.858  0.00  0.00    +0.000 N 
ATOM    105  H   LYS A   7     -19.974 -45.353 -73.477  0.00  0.00    +0.000 HD
BRANCH 104 106
ATOM    106  CA  LYS A   7     -20.826 -43.956 -74.867  0.00  0.00    +0.000 C 
BRANCH 106 107
ATOM    107  C   LYS A   7     -22.194 -44.501 -74.482  0.00  0.00    +0.000 C 
ATOM    108  O   LYS A   7     -22.301 -45.664 -74.123  0.00  0.00    +0.000 OA
ENDBRANCH 106 107
BRANCH 106 109
ATOM    109  CB  LYS A   7     -20.398 -44.475 -76.241  0.00  0.00    +0.000 C 
BRANCH 109 110
ATOM    110  CG  LYS A   7     -21.476 -44.414 -77.301  0.00  0.00    +0.000 C 
BRANCH 110 111
ATOM    111  CD  LYS A   7     -20.987 -44.893 -78.661  0.00  0.00    +0.000 C 
BRANCH 111 112
ATOM    112  CE  LYS A   7     -22.170 -45.127 -79.581  0.00  0.00    +0.000 C 
BRANCH 112 113
ATOM    113  NZ  LYS A   7     -21.764 -45.264 -81.005  0.00  0.00    +0.000 N 
ATOM    114  HZ1 LYS A   7     -21.116 -46.071 -81.103  0.00  0.00    +0.000 HD
ATOM    115  HZ2 LYS A   7     -21.285 -44.394 -81.313  0.00  0.00    +0.000 HD
ATOM    116  HZ3 LYS A   7     -22.608 -45.422 -81.591  0.00  0.00    +0.000 HD
ENDBRANCH 112 113
ENDBRANCH 111 112
ENDBRANCH 110 111
ENDBRANCH 109 110
ENDBRANCH 106 109
ENDBRANCH 104 106
ENDBRANCH 101 102
BRANCH 101 117
ATOM    117  C   UNK A   6     -18.730 -44.062 -70.953  0.00  0.00    +0.000 C 
BRANCH 117 118
ATOM    118  C   UNK A   6     -17.914 -44.522 -69.785  0.00  0.00    +0.000 A 
ATOM    119  C   UNK A   6     -18.138 -45.497 -68.873  0.00  0.00    +0.000 A 
ATOM    120  N   UNK A   6     -17.086 -45.475 -67.989  0.00  0.00    +0.000 NA
ATOM    121  C   UNK A   6     -16.256 -44.509 -68.335  0.00  0.00    +0.000 A 
ATOM    122  N   UNK A   6     -16.741 -43.908 -69.406  0.00  0.00    +0.000 NA
ENDBRANCH 117 118
ENDBRANCH 101 117
ENDBRANCH  98 101
ENDBRANCH  96  97
BRANCH  96 123
ATOM    123  CB  VAL A   5     -13.636 -43.885 -73.866  0.00  0.00    +0.000 C 
ATOM    124  CG2 VAL A   5     -12.301 -43.210 -73.856  0.00  0.00    +0.000 C 
ATOM    125  CG1 VAL A   5     -14.497 -43.269 -74.949  0.00  0.00    +0.000 C 
ENDBRANCH  96 123
ENDBRANCH  94  96
ENDBRANCH  91  92
BRANCH  91 126
ATOM    126  C   UNK A   4     -12.817 -44.628 -67.900  0.00  0.00    +0.000 C 
BRANCH 126 127
ATOM    127  C   UNK A   4     -11.854 -45.433 -67.046  0.00  0.00    +0.000 A 
ATOM    128  C   UNK A   4     -12.271 -46.596 -66.418  0.00  0.00    +0.000 A 
ATOM    129  C   UNK A   4     -11.403 -47.328 -65.619  0.00  0.00    +0.000 A 
ATOM    130  C   UNK A   4     -10.111 -46.894 -65.416  0.00  0.00    +0.000 A 
ATOM    131  C   UNK A   4      -9.682 -45.721 -66.006  0.00  0.00    +0.000 A 
ATOM    132  C   UNK A   4     -10.560 -44.979 -66.794  0.00  0.00    +0.000 A 
ENDBRANCH 126 127
ENDBRANCH  91 126
ENDBRANCH  88  91
ENDBRANCH  70  87
ENDBRANCH  69  70
ENDBRANCH   2  69
TORSDOF 44
REMARK  Name = ../refined-set-2016/4ygf/4ygf_pocket.pdb
REMARK  145 active torsions:
REMARK  status: ('A' for Active; 'I' for Inactive)
REMARK    1  A    between atoms: _1  and  _3
REMARK    2  A    between atoms: _3  and  _4
REMARK    3  A    between atoms: _3  and  _6
REMARK    4  A    between atoms: _6  and  _7
REMARK    5  A    between atoms: _17  and  _19
REMARK    6  A    between atoms: _19  and  _20
REMARK    7  A    between atoms: _19  and  _22
REMARK    8  A    between atoms: _22  and  _23
REMARK    9  A    between atoms: _28  and  _29
REMARK   10  A    between atoms: _31  and  _33
REMARK   11  A    between atoms: _33  and  _34
REMARK   12  A    between atoms: _33  and  _36
REMARK   13  A    between atoms: _36  and  _37
REMARK   14  A    between atoms: _40  and  _41
REMARK   15  A    between atoms: _46  and  _48
REMARK   16  A    between atoms: _48  and  _49
REMARK   17  A    between atoms: _48  and  _51
REMARK   18  A    between atoms: _51  and  _52
REMARK   19  A    between atoms: _55  and  _57
REMARK   20  A    between atoms: _57  and  _58
REMARK   21  A    between atoms: _57  and  _60
REMARK   22  A    between atoms: _60  and  _61
REMARK   23  A    between atoms: _66  and  _68
REMARK   24  A    between atoms: _68  and  _69
REMARK   25  A    between atoms: _68  and  _71
REMARK   26  A    between atoms: _71  and  _72
REMARK   27  A    between atoms: _75  and  _77
REMARK   28  A    between atoms: _77  and  _78
REMARK   29  A    between atoms: _77  and  _80
REMARK   30  A    between atoms: _80  and  _81
REMARK   31  A    between atoms: _81  and  _82
REMARK   32  A    between atoms: _82  and  _83
REMARK   33  A    between atoms: _83  and  _84
REMARK   34  A    between atoms: _88  and  _90
REMARK   35  A    between atoms: _90  and  _91
REMARK   36  A    between atoms: _90  and  _93
REMARK   37  A    between atoms: _93  and  _94
REMARK   38  A    between atoms: _97  and  _99
REMARK   39  A    between atoms: _99  and  _100
REMARK   40  A    between atoms: _99  and  _102
REMARK   41  A    between atoms: _102  and  _103
REMARK   42  A    between atoms: _108  and  _110
REMARK   43  A    between atoms: _110  and  _111
REMARK   44  A    between atoms: _110  and  _113
REMARK   45  A    between atoms: _116  and  _118
REMARK   46  A    between atoms: _129  and  _132
REMARK   47  A    between atoms: _132  and  _133
REMARK   48  A    between atoms: _141  and  _142
REMARK   49  A    between atoms: _150  and  _152
REMARK   50  A    between atoms: _152  and  _153
REMARK   51  A    between atoms: _152  and  _155
REMARK   52  A    between atoms: _155  and  _156
REMARK   53  A    between atoms: _156  and  _157
REMARK   54  A    between atoms: _160  and  _162
REMARK   55  A    between atoms: _162  and  _163
REMARK   56  A    between atoms: _162  and  _165
REMARK   57  A    between atoms: _165  and  _166
REMARK   58  A    between atoms: _172  and  _174
REMARK   59  A    between atoms: _174  and  _175
REMARK   60  A    between atoms: _174  and  _177
REMARK   61  A    between atoms: _177  and  _178
REMARK   62  A    between atoms: _180  and  _182
REMARK   63  A    between atoms: _182  and  _183
REMARK   64  A    between atoms: _186  and  _188
REMARK   65  A    between atoms: _188  and  _189
REMARK   66  A    between atoms: _188  and  _191
REMARK   67  A    between atoms: _191  and  _192
REMARK   68  A    between atoms: _193  and  ZN_401
REMARK   69  A    between atoms: _197  and  _199
REMARK   70  A    between atoms: _199  and  _200
REMARK   71  A    between atoms: _199  and  _202
REMARK   72  A    between atoms: _202  and  _203
REMARK   73  A    between atoms: _209  and  _211
REMARK   74  A    between atoms: _211  and  _212
REMARK   75  A    between atoms: _211  and  _214
REMARK   76  A    between atoms: _217  and  _219
REMARK   77  A    between atoms: _219  and  _220
REMARK   78  A    between atoms: _219  and  _222
REMARK   79  A    between atoms: _222  and  _223
REMARK   80  A    between atoms: _228  and  _230
REMARK   81  A    between atoms: _230  and  _231
REMARK   82  A    between atoms: _230  and  _233
REMARK   83  A    between atoms: _233  and  _234
REMARK   84  A    between atoms: _234  and  _235
REMARK   85  A    between atoms: _235  and  _236
REMARK   86  A    between atoms: _236  and  _237
REMARK   87  A    between atoms: _241  and  _243
REMARK   88  A    between atoms: _243  and  _244
REMARK   89  A    between atoms: _243  and  _246
REMARK   90  A    between atoms: _246  and  _247
REMARK   91  A    between atoms: _250  and  _252
REMARK   92  A    between atoms: _252  and  _253
REMARK   93  A    between atoms: _252  and  _255
REMARK   94  A    between atoms: _255  and  _256
REMARK   95  A    between atoms: _259  and  _261
REMARK   96  A    between atoms: _261  and  _262
REMARK   97  A    between atoms: _261  and  _264
REMARK   98  A    between atoms: _267  and  _269
REMARK   99  A    between atoms: _269  and  _270
REMARK  100  A    between atoms: _269  and  _272
REMARK  101  A    between atoms: _272  and  _273
REMARK  102  A    between atoms: _276  and  _278
REMARK  103  A    between atoms: _278  and  _279
REMARK  104  A    between atoms: _282  and  _284
REMARK  105  A    between atoms: _284  and  _285
REMARK  106  A    between atoms: _287  and  _289
REMARK  107  A    between atoms: _289  and  _290
REMARK  108  A    between atoms: _289  and  _292
REMARK  109  A    between atoms: _292  and  _293
REMARK  110  A    between atoms: _295  and  _297
REMARK  111  A    between atoms: _297  and  _298
REMARK  112  A    between atoms: _297  and  _300
REMARK  113  A    between atoms: _300  and  _301
REMARK  114  A    between atoms: _304  and  _306
REMARK  115  A    between atoms: _306  and  _307
REMARK  116  A    between atoms: _306  and  _309
REMARK  117  A    between atoms: _309  and  _310
REMARK  118  A    between atoms: _313  and  _315
REMARK  119  A    between atoms: _315  and  _316
REMARK  120  A    between atoms: _320  and  _321
REMARK  121  A    between atoms: _327  and  _328
REMARK  122  A    between atoms: _333  and  _335
REMARK  123  A    between atoms: _335  and  _336
REMARK  124  A    between atoms: _335  and  _338
REMARK  125  A    between atoms: _340  and  _342
REMARK  126  A    between atoms: _342  and  _343
REMARK  127  A    between atoms: _342  and  _345
REMARK  128  A    between atoms: _345  and  _346
REMARK  129  A    between atoms: _349  and  _351
REMARK  130  A    between atoms: _351  and  _352
REMARK  131  A    between atoms: _351  and  _354
REMARK  132  A    between atoms: _357  and  _359
REMARK  133  A    between atoms: _359  and  _360
REMARK  134  A    between atoms: _359  and  _362
REMARK  135  A    between atoms: _362  and  _363
REMARK  136  A    between atoms: _373  and  _375
REMARK  137  A    between atoms: _375  and  _376
REMARK  138  A    between atoms: _375  and  _378
REMARK  139  A    between atoms: _378  and  _379
REMARK  140  A    between atoms: _384  and  _386
REMARK  141  A    between atoms: _386  and  _387
REMARK  142  A    between atoms: _386  and  _389
REMARK  143  A    between atoms: _389  and  _390
REMARK  144  A    between atoms: _390  and  _391
REMARK  145  A    between atoms: _391  and  _392
REMARK                            x       y       z     vdW  Elec       q    Type
REMARK                         _______ _______ _______ _____ _____    ______ ____
ROOT
ATOM      1  C   GLU A   1      -4.281 -33.120 -69.639  0.00  0.00    +0.238 C 
ATOM      2  N   PHE A   2      -5.210 -33.444 -68.750  0.00  0.00    -0.298 N 
ATOM      3  H   PHE A   2      -5.502 -34.434 -68.623  0.00  0.00    +0.150 HD
ATOM      4  O   GLU A   1      -3.985 -31.948 -69.879  0.00  0.00    -0.274 OA
ENDROOT
BRANCH   1   5
ATOM      5  CA  GLU A   1      -3.594 -34.231 -70.421  0.00  0.00    +0.145 C 
BRANCH   5   6
ATOM      6  N   GLU A   1      -3.146 -35.360 -69.625  0.00  0.00    -0.238 NA
ATOM      7  H   GLU A   1      -3.728 -36.219 -69.558  0.00  0.00    +0.142 HD
ENDBRANCH   5   6
BRANCH   5   8
ATOM      8  CB  GLU A   1      -4.461 -34.710 -71.570  0.00  0.00    +0.038 C 
BRANCH   8   9
ATOM      9  CG  GLU A   1      -3.632 -35.410 -72.609  0.00  0.00    +0.116 C 
BRANCH   9  10
ATOM     10  CD  GLU A   1      -4.401 -35.670 -73.872  0.00  0.00    +0.365 C 
ATOM     11  OE2 GLU A   1      -5.467 -36.305 -73.785  0.00  0.00    -0.246 OA
ATOM     12  OE1 GLU A   1      -3.958 -35.210 -74.943  0.00  0.00    -0.246 OA
ENDBRANCH   9  10
ENDBRANCH   8   9
ENDBRANCH   5   8
ENDBRANCH   1   5
BRANCH   2  13
ATOM     13  CA  PHE A   2      -5.812 -32.381 -67.955  0.00  0.00    +0.141 C 
BRANCH  13  14
ATOM     14  C   PHE A   2      -4.843 -32.007 -66.836  0.00  0.00    +0.227 C 
ATOM     15  O   PHE A   2      -4.283 -32.878 -66.186  0.00  0.00    -0.286 OA
ENDBRANCH  13  14
BRANCH  13  16
ATOM     16  CB  PHE A   2      -7.157 -32.804 -67.404  0.00  0.00    +0.054 C 
BRANCH  16  17
ATOM     17  CG  PHE A   2      -8.266 -32.655 -68.385  0.00  0.00    -0.020 A 
ATOM     18  CD2 PHE A   2      -8.863 -31.422 -68.594  0.00  0.00    -0.004 A 
ATOM     19  CE2 PHE A   2      -9.884 -31.282 -69.510  0.00  0.00    -0.000 A 
ATOM     20  CZ  PHE A   2     -10.314 -32.382 -70.243  0.00  0.00    -0.000 A 
ATOM     21  CE1 PHE A   2      -9.717 -33.620 -70.049  0.00  0.00    -0.000 A 
ATOM     22  CD1 PHE A   2      -8.698 -33.748 -69.124  0.00  0.00    -0.004 A 
ENDBRANCH  16  17
ENDBRANCH  13  16
ENDBRANCH   2  13
TORSDOF 9
REMARK  Name = ../refined-set-2016/4ygf/4ygf_pocket.pdb
REMARK  145 active torsions:
REMARK  status: ('A' for Active; 'I' for Inactive)
REMARK    1  A    between atoms: _1  and  _3
REMARK    2  A    between atoms: _3  and  _4
REMARK    3  A    between atoms: _3  and  _6
REMARK    4  A    between atoms: _6  and  _7
REMARK    5  A    between atoms: _17  and  _19
REMARK    6  A    between atoms: _19  and  _20
REMARK    7  A    between atoms: _19  and  _22
REMARK    8  A    between atoms: _22  and  _23
REMARK    9  A    between atoms: _28  and  _29
REMARK   10  A    between atoms: _31  and  _33
REMARK   11  A    between atoms: _33  and  _34
REMARK   12  A    between atoms: _33  and  _36
REMARK   13  A    between atoms: _36  and  _37
REMARK   14  A    between atoms: _40  and  _41
REMARK   15  A    between atoms: _46  and  _48
REMARK   16  A    between atoms: _48  and  _49
REMARK   17  A    between atoms: _48  and  _51
REMARK   18  A    between atoms: _51  and  _52
REMARK   19  A    between atoms: _55  and  _57
REMARK   20  A    between atoms: _57  and  _58
REMARK   21  A    between atoms: _57  and  _60
REMARK   22  A    between atoms: _60  and  _61
REMARK   23  A    between atoms: _66  and  _68
REMARK   24  A    between atoms: _68  and  _69
REMARK   25  A    between atoms: _68  and  _71
REMARK   26  A    between atoms: _71  and  _72
REMARK   27  A    between atoms: _75  and  _77
REMARK   28  A    between atoms: _77  and  _78
REMARK   29  A    between atoms: _77  and  _80
REMARK   30  A    between atoms: _80  and  _81
REMARK   31  A    between atoms: _81  and  _82
REMARK   32  A    between atoms: _82  and  _83
REMARK   33  A    between atoms: _83  and  _84
REMARK   34  A    between atoms: _88  and  _90
REMARK   35  A    between atoms: _90  and  _91
REMARK   36  A    between atoms: _90  and  _93
REMARK   37  A    between atoms: _93  and  _94
REMARK   38  A    between atoms: _97  and  _99
REMARK   39  A    between atoms: _99  and  _100
REMARK   40  A    between atoms: _99  and  _102
REMARK   41  A    between atoms: _102  and  _103
REMARK   42  A    between atoms: _108  and  _110
REMARK   43  A    between atoms: _110  and  _111
REMARK   44  A    between atoms: _110  and  _113
REMARK   45  A    between atoms: _116  and  _118
REMARK   46  A    between atoms: _129  and  _132
REMARK   47  A    between atoms: _132  and  _133
REMARK   48  A    between atoms: _141  and  _142
REMARK   49  A    between atoms: _150  and  _152
REMARK   50  A    between atoms: _152  and  _153
REMARK   51  A    between atoms: _152  and  _155
REMARK   52  A    between atoms: _155  and  _156
REMARK   53  A    between atoms: _156  and  _157
REMARK   54  A    between atoms: _160  and  _162
REMARK   55  A    between atoms: _162  and  _163
REMARK   56  A    between atoms: _162  and  _165
REMARK   57  A    between atoms: _165  and  _166
REMARK   58  A    between atoms: _172  and  _174
REMARK   59  A    between atoms: _174  and  _175
REMARK   60  A    between atoms: _174  and  _177
REMARK   61  A    between atoms: _177  and  _178
REMARK   62  A    between atoms: _180  and  _182
REMARK   63  A    between atoms: _182  and  _183
REMARK   64  A    between atoms: _186  and  _188
REMARK   65  A    between atoms: _188  and  _189
REMARK   66  A    between atoms: _188  and  _191
REMARK   67  A    between atoms: _191  and  _192
REMARK   68  A    between atoms: _193  and  ZN_401
REMARK   69  A    between atoms: _197  and  _199
REMARK   70  A    between atoms: _199  and  _200
REMARK   71  A    between atoms: _199  and  _202
REMARK   72  A    between atoms: _202  and  _203
REMARK   73  A    between atoms: _209  and  _211
REMARK   74  A    between atoms: _211  and  _212
REMARK   75  A    between atoms: _211  and  _214
REMARK   76  A    between atoms: _217  and  _219
REMARK   77  A    between atoms: _219  and  _220
REMARK   78  A    between atoms: _219  and  _222
REMARK   79  A    between atoms: _222  and  _223
REMARK   80  A    between atoms: _228  and  _230
REMARK   81  A    between atoms: _230  and  _231
REMARK   82  A    between atoms: _230  and  _233
REMARK   83  A    between atoms: _233  and  _234
REMARK   84  A    between atoms: _234  and  _235
REMARK   85  A    between atoms: _235  and  _236
REMARK   86  A    between atoms: _236  and  _237
REMARK   87  A    between atoms: _241  and  _243
REMARK   88  A    between atoms: _243  and  _244
REMARK   89  A    between atoms: _243  and  _246
REMARK   90  A    between atoms: _246  and  _247
REMARK   91  A    between atoms: _250  and  _252
REMARK   92  A    between atoms: _252  and  _253
REMARK   93  A    between atoms: _252  and  _255
REMARK   94  A    between atoms: _255  and  _256
REMARK   95  A    between atoms: _259  and  _261
REMARK   96  A    between atoms: _261  and  _262
REMARK   97  A    between atoms: _261  and  _264
REMARK   98  A    between atoms: _267  and  _269
REMARK   99  A    between atoms: _269  and  _270
REMARK  100  A    between atoms: _269  and  _272
REMARK  101  A    between atoms: _272  and  _273
REMARK  102  A    between atoms: _276  and  _278
REMARK  103  A    between atoms: _278  and  _279
REMARK  104  A    between atoms: _282  and  _284
REMARK  105  A    between atoms: _284  and  _285
REMARK  106  A    between atoms: _287  and  _289
REMARK  107  A    between atoms: _289  and  _290
REMARK  108  A    between atoms: _289  and  _292
REMARK  109  A    between atoms: _292  and  _293
REMARK  110  A    between atoms: _295  and  _297
REMARK  111  A    between atoms: _297  and  _298
REMARK  112  A    between atoms: _297  and  _300
REMARK  113  A    between atoms: _300  and  _301
REMARK  114  A    between atoms: _304  and  _306
REMARK  115  A    between atoms: _306  and  _307
REMARK  116  A    between atoms: _306  and  _309
REMARK  117  A    between atoms: _309  and  _310
REMARK  118  A    between atoms: _313  and  _315
REMARK  119  A    between atoms: _315  and  _316
REMARK  120  A    between atoms: _320  and  _321
REMARK  121  A    between atoms: _327  and  _328
REMARK  122  A    between atoms: _333  and  _335
REMARK  123  A    between atoms: _335  and  _336
REMARK  124  A    between atoms: _335  and  _338
REMARK  125  A    between atoms: _340  and  _342
REMARK  126  A    between atoms: _342  and  _343
REMARK  127  A    between atoms: _342  and  _345
REMARK  128  A    between atoms: _345  and  _346
REMARK  129  A    between atoms: _349  and  _351
REMARK  130  A    between atoms: _351  and  _352
REMARK  131  A    between atoms: _351  and  _354
REMARK  132  A    between atoms: _357  and  _359
REMARK  133  A    between atoms: _359  and  _360
REMARK  134  A    between atoms: _359  and  _362
REMARK  135  A    between atoms: _362  and  _363
REMARK  136  A    between atoms: _373  and  _375
REMARK  137  A    between atoms: _375  and  _376
REMARK  138  A    between atoms: _375  and  _378
REMARK  139  A    between atoms: _378  and  _379
REMARK  140  A    between atoms: _384  and  _386
REMARK  141  A    between atoms: _386  and  _387
REMARK  142  A    between atoms: _386  and  _389
REMARK  143  A    between atoms: _389  and  _390
REMARK  144  A    between atoms: _390  and  _391
REMARK  145  A    between atoms: _391  and  _392
REMARK                            x       y       z     vdW  Elec       q    Type
REMARK                         _______ _______ _______ _____ _____    ______ ____
ROOT
ATOM      1  CA  VAL A   3     -14.915 -39.741 -70.385  0.00  0.00    +0.149 C 
ENDROOT
BRANCH   1   3
ATOM      2  C   LEU A   2     -17.187 -40.040 -70.978  0.00  0.00    +0.241 C 
ATOM      3  N   VAL A   3     -16.229 -39.196 -70.640  0.00  0.00    -0.297 N 
ATOM      4  H   VAL A   3     -16.414 -38.176 -70.560  0.00  0.00    +0.150 HD
ATOM      5  O   LEU A   2     -16.974 -41.232 -71.087  0.00  0.00    -0.273 OA
BRANCH   2   6
ATOM      6  CA  LEU A   2     -18.568 -39.476 -71.252  0.00  0.00    +0.149 C 
BRANCH   6   8
ATOM      7  C   LEU A   1     -19.447 -38.937 -73.474  0.00  0.00    +0.238 C 
ATOM      8  N   LEU A   2     -18.974 -39.825 -72.608  0.00  0.00    -0.297 N 
ATOM      9  H   LEU A   2     -18.889 -40.816 -72.911  0.00  0.00    +0.150 HD
ATOM     10  O   LEU A   1     -19.668 -37.780 -73.189  0.00  0.00    -0.274 OA
BRANCH   7  11
ATOM     11  CA  LEU A   1     -19.670 -39.414 -74.892  0.00  0.00    +0.145 C 
BRANCH  11  12
ATOM     12  N   LEU A   1     -20.953 -38.977 -75.408  0.00  0.00    -0.238 NA
ATOM     13  H   LEU A   1     -21.059 -37.992 -75.725  0.00  0.00    +0.142 HD
ENDBRANCH  11  12
BRANCH  11  14
ATOM     14  CB  LEU A   1     -18.561 -38.878 -75.783  0.00  0.00    +0.026 C 
BRANCH  14  15
ATOM     15  CG  LEU A   1     -18.601 -39.322 -77.236  0.00  0.00    +0.002 C 
ATOM     16  CD2 LEU A   1     -18.156 -40.756 -77.303  0.00  0.00    +0.000 C 
ATOM     17  CD1 LEU A   1     -17.730 -38.420 -78.083  0.00  0.00    +0.000 C 
ENDBRANCH  14  15
ENDBRANCH  11  14
ENDBRANCH   7  11
ENDBRANCH   6   8
BRANCH   6  18
ATOM     18  CB  LEU A   2     -19.577 -39.997 -70.235  0.00  0.00    +0.029 C 
BRANCH  18  19
ATOM     19  CG  LEU A   2     -19.454 -39.602 -68.763  0.00  0.00    +0.002 C 
ATOM     20  CD2 LEU A   2     -18.411 -40.426 -68.043  0.00  0.00    +0.000 C 
ATOM     21  CD1 LEU A   2     -20.786 -39.798 -68.082  0.00  0.00    +0.000 C 
ENDBRANCH  18  19
ENDBRANCH   6  18
ENDBRANCH   2   6
ENDBRANCH   1   3
BRANCH   1  22
ATOM     22  C   VAL A   3     -14.382 -39.443 -68.987  0.00  0.00    +0.241 C 
ATOM     23  N   LEU A   4     -13.820 -40.476 -68.391  0.00  0.00    -0.297 N 
ATOM     24  H   LEU A   4     -13.746 -41.375 -68.909  0.00  0.00    +0.150 HD
ATOM     25  O   VAL A   3     -14.453 -38.337 -68.472  0.00  0.00    -0.273 OA
BRANCH  23  26
ATOM     26  CA  LEU A   4     -13.309 -40.404 -67.058  0.00  0.00    +0.149 C 
BRANCH  26  27
ATOM     27  C   LEU A   4     -11.792 -40.406 -67.125  0.00  0.00    +0.241 C 
ATOM     28  N   ALA A   5     -11.184 -39.417 -66.471  0.00  0.00    -0.298 N 
ATOM     29  H   ALA A   5     -11.769 -38.733 -65.949  0.00  0.00    +0.150 HD
ATOM     30  O   LEU A   4     -11.195 -41.268 -67.761  0.00  0.00    -0.273 OA
BRANCH  28  31
ATOM     31  CA  ALA A   5      -9.732 -39.250 -66.454  0.00  0.00    +0.137 C 
ATOM     32  CB  ALA A   5      -9.336 -37.931 -67.125  0.00  0.00    +0.030 C 
BRANCH  31  33
ATOM     33  C   ALA A   5      -9.176 -39.307 -65.041  0.00  0.00    +0.227 C 
ATOM     34  O   ALA A   5      -9.767 -38.777 -64.121  0.00  0.00    -0.286 OA
ENDBRANCH  31  33
ENDBRANCH  28  31
ENDBRANCH  26  27
BRANCH  26  35
ATOM     35  CB  LEU A   4     -13.863 -41.565 -66.255  0.00  0.00    +0.029 C 
BRANCH  35  36
ATOM     36  CG  LEU A   4     -13.712 -41.560 -64.749  0.00  0.00    +0.002 C 
ATOM     37  CD2 LEU A   4     -14.736 -42.496 -64.175  0.00  0.00    +0.000 C 
ATOM     38  CD1 LEU A   4     -12.332 -42.084 -64.425  0.00  0.00    +0.000 C 
ENDBRANCH  35  36
ENDBRANCH  26  35
ENDBRANCH  23  26
ENDBRANCH   1  22
BRANCH   1  39
ATOM     39  CB  VAL A   3     -13.900 -39.245 -71.429  0.00  0.00    +0.027 C 
ATOM     40  CG2 VAL A   3     -12.571 -39.986 -71.276  0.00  0.00    +0.002 C 
ATOM     41  CG1 VAL A   3     -14.443 -39.454 -72.824  0.00  0.00    +0.002 C 
ENDBRANCH   1  39
TORSDOF 17
REMARK  Name = ../refined-set-2016/4ygf/4ygf_pocket.pdb
REMARK  145 active torsions:
REMARK  status: ('A' for Active; 'I' for Inactive)
REMARK    1  A    between atoms: _1  and  _3
REMARK    2  A    between atoms: _3  and  _4
REMARK    3  A    between atoms: _3  and  _6
REMARK    4  A    between atoms: _6  and  _7
REMARK    5  A    between atoms: _17  and  _19
REMARK    6  A    between atoms: _19  and  _20
REMARK    7  A    between atoms: _19  and  _22
REMARK    8  A    between atoms: _22  and  _23
REMARK    9  A    between atoms: _28  and  _29
REMARK   10  A    between atoms: _31  and  _33
REMARK   11  A    between atoms: _33  and  _34
REMARK   12  A    between atoms: _33  and  _36
REMARK   13  A    between atoms: _36  and  _37
REMARK   14  A    between atoms: _40  and  _41
REMARK   15  A    between atoms: _46  and  _48
REMARK   16  A    between atoms: _48  and  _49
REMARK   17  A    between atoms: _48  and  _51
REMARK   18  A    between atoms: _51  and  _52
REMARK   19  A    between atoms: _55  and  _57
REMARK   20  A    between atoms: _57  and  _58
REMARK   21  A    between atoms: _57  and  _60
REMARK   22  A    between atoms: _60  and  _61
REMARK   23  A    between atoms: _66  and  _68
REMARK   24  A    between atoms: _68  and  _69
REMARK   25  A    between atoms: _68  and  _71
REMARK   26  A    between atoms: _71  and  _72
REMARK   27  A    between atoms: _75  and  _77
REMARK   28  A    between atoms: _77  and  _78
REMARK   29  A    between atoms: _77  and  _80
REMARK   30  A    between atoms: _80  and  _81
REMARK   31  A    between atoms: _81  and  _82
REMARK   32  A    between atoms: _82  and  _83
REMARK   33  A    between atoms: _83  and  _84
REMARK   34  A    between atoms: _88  and  _90
REMARK   35  A    between atoms: _90  and  _91
REMARK   36  A    between atoms: _90  and  _93
REMARK   37  A    between atoms: _93  and  _94
REMARK   38  A    between atoms: _97  and  _99
REMARK   39  A    between atoms: _99  and  _100
REMARK   40  A    between atoms: _99  and  _102
REMARK   41  A    between atoms: _102  and  _103
REMARK   42  A    between atoms: _108  and  _110
REMARK   43  A    between atoms: _110  and  _111
REMARK   44  A    between atoms: _110  and  _113
REMARK   45  A    between atoms: _116  and  _118
REMARK   46  A    between atoms: _129  and  _132
REMARK   47  A    between atoms: _132  and  _133
REMARK   48  A    between atoms: _141  and  _142
REMARK   49  A    between atoms: _150  and  _152
REMARK   50  A    between atoms: _152  and  _153
REMARK   51  A    between atoms: _152  and  _155
REMARK   52  A    between atoms: _155  and  _156
REMARK   53  A    between atoms: _156  and  _157
REMARK   54  A    between atoms: _160  and  _162
REMARK   55  A    between atoms: _162  and  _163
REMARK   56  A    between atoms: _162  and  _165
REMARK   57  A    between atoms: _165  and  _166
REMARK   58  A    between atoms: _172  and  _174
REMARK   59  A    between atoms: _174  and  _175
REMARK   60  A    between atoms: _174  and  _177
REMARK   61  A    between atoms: _177  and  _178
REMARK   62  A    between atoms: _180  and  _182
REMARK   63  A    between atoms: _182  and  _183
REMARK   64  A    between atoms: _186  and  _188
REMARK   65  A    between atoms: _188  and  _189
REMARK   66  A    between atoms: _188  and  _191
REMARK   67  A    between atoms: _191  and  _192
REMARK   68  A    between atoms: _193  and  ZN_401
REMARK   69  A    between atoms: _197  and  _199
REMARK   70  A    between atoms: _199  and  _200
REMARK   71  A    between atoms: _199  and  _202
REMARK   72  A    between atoms: _202  and  _203
REMARK   73  A    between atoms: _209  and  _211
REMARK   74  A    between atoms: _211  and  _212
REMARK   75  A    between atoms: _211  and  _214
REMARK   76  A    between atoms: _217  and  _219
REMARK   77  A    between atoms: _219  and  _220
REMARK   78  A    between atoms: _219  and  _222
REMARK   79  A    between atoms: _222  and  _223
REMARK   80  A    between atoms: _228  and  _230
REMARK   81  A    between atoms: _230  and  _231
REMARK   82  A    between atoms: _230  and  _233
REMARK   83  A    between atoms: _233  and  _234
REMARK   84  A    between atoms: _234  and  _235
REMARK   85  A    between atoms: _235  and  _236
REMARK   86  A    between atoms: _236  and  _237
REMARK   87  A    between atoms: _241  and  _243
REMARK   88  A    between atoms: _243  and  _244
REMARK   89  A    between atoms: _243  and  _246
REMARK   90  A    between atoms: _246  and  _247
REMARK   91  A    between atoms: _250  and  _252
REMARK   92  A    between atoms: _252  and  _253
REMARK   93  A    between atoms: _252  and  _255
REMARK   94  A    between atoms: _255  and  _256
REMARK   95  A    between atoms: _259  and  _261
REMARK   96  A    between atoms: _261  and  _262
REMARK   97  A    between atoms: _261  and  _264
REMARK   98  A    between atoms: _267  and  _269
REMARK   99  A    between atoms: _269  and  _270
REMARK  100  A    between atoms: _269  and  _272
REMARK  101  A    between atoms: _272  and  _273
REMARK  102  A    between atoms: _276  and  _278
REMARK  103  A    between atoms: _278  and  _279
REMARK  104  A    between atoms: _282  and  _284
REMARK  105  A    between atoms: _284  and  _285
REMARK  106  A    between atoms: _287  and  _289
REMARK  107  A    between atoms: _289  and  _290
REMARK  108  A    between atoms: _289  and  _292
REMARK  109  A    between atoms: _292  and  _293
REMARK  110  A    between atoms: _295  and  _297
REMARK  111  A    between atoms: _297  and  _298
REMARK  112  A    between atoms: _297  and  _300
REMARK  113  A    between atoms: _300  and  _301
REMARK  114  A    between atoms: _304  and  _306
REMARK  115  A    between atoms: _306  and  _307
REMARK  116  A    between atoms: _306  and  _309
REMARK  117  A    between atoms: _309  and  _310
REMARK  118  A    between atoms: _313  and  _315
REMARK  119  A    between atoms: _315  and  _316
REMARK  120  A    between atoms: _320  and  _321
REMARK  121  A    between atoms: _327  and  _328
REMARK  122  A    between atoms: _333  and  _335
REMARK  123  A    between atoms: _335  and  _336
REMARK  124  A    between atoms: _335  and  _338
REMARK  125  A    between atoms: _340  and  _342
REMARK  126  A    between atoms: _342  and  _343
REMARK  127  A    between atoms: _342  and  _345
REMARK  128  A    between atoms: _345  and  _346
REMARK  129  A    between atoms: _349  and  _351
REMARK  130  A    between atoms: _351  and  _352
REMARK  131  A    between atoms: _351  and  _354
REMARK  132  A    between atoms: _357  and  _359
REMARK  133  A    between atoms: _359  and  _360
REMARK  134  A    between atoms: _359  and  _362
REMARK  135  A    between atoms: _362  and  _363
REMARK  136  A    between atoms: _373  and  _375
REMARK  137  A    between atoms: _375  and  _376
REMARK  138  A    between atoms: _375  and  _378
REMARK  139  A    between atoms: _378  and  _379
REMARK  140  A    between atoms: _384  and  _386
REMARK  141  A    between atoms: _386  and  _387
REMARK  142  A    between atoms: _386  and  _389
REMARK  143  A    between atoms: _389  and  _390
REMARK  144  A    between atoms: _390  and  _391
REMARK  145  A    between atoms: _391  and  _392
REMARK                            x       y       z     vdW  Elec       q    Type
REMARK                         _______ _______ _______ _____ _____    ______ ____
ROOT
ATOM      1  CA  ALA A   5      -7.705 -36.235 -80.198  0.00  0.00    +0.149 C 
ATOM      2  CB  ALA A   5      -7.294 -37.702 -80.089  0.00  0.00    +0.031 C 
ENDROOT
BRANCH   1   3
ATOM      3  C   ALA A   5      -8.643 -36.019 -81.395  0.00  0.00    +0.244 C 
ATOM      4  O   ALA A   5      -9.854 -36.078 -81.237  0.00  0.00    -0.273 OA
ATOM      5  N   PRO A   6      -8.091 -35.800 -82.598  0.00  0.00    -0.272 N 
ATOM      6  CD  PRO A   6      -6.676 -35.662 -82.964  0.00  0.00    +0.094 C 
ATOM      7  CG  PRO A   6      -6.746 -35.097 -84.351  0.00  0.00    +0.024 C 
ATOM      8  CB  PRO A   6      -7.989 -35.608 -84.919  0.00  0.00    +0.031 C 
ATOM      9  CA  PRO A   6      -8.961 -35.594 -83.752  0.00  0.00    +0.152 C 
BRANCH   9  10
ATOM     10  C   PRO A   6      -9.976 -36.710 -83.853  0.00  0.00    +0.244 C 
ATOM     11  O   PRO A   6      -9.622 -37.833 -83.539  0.00  0.00    -0.273 OA
ATOM     12  N   PRO A   7     -11.222 -36.408 -84.232  0.00  0.00    -0.272 N 
ATOM     13  CD  PRO A   7     -12.287 -37.424 -84.174  0.00  0.00    +0.094 C 
ATOM     14  CG  PRO A   7     -13.484 -36.711 -84.722  0.00  0.00    +0.024 C 
ATOM     15  CB  PRO A   7     -12.961 -35.546 -85.510  0.00  0.00    +0.031 C 
ATOM     16  CA  PRO A   7     -11.721 -35.129 -84.739  0.00  0.00    +0.152 C 
BRANCH  16  17
ATOM     17  C   PRO A   7     -12.134 -34.105 -83.685  0.00  0.00    +0.241 C 
ATOM     18  N   CYS A   8     -11.750 -34.299 -82.420  0.00  0.00    -0.296 N 
ATOM     19  H   CYS A   8     -11.263 -35.186 -82.180  0.00  0.00    +0.150 HD
ATOM     20  O   PRO A   7     -12.793 -33.138 -84.067  0.00  0.00    -0.273 OA
BRANCH  18  21
ATOM     21  CA  CYS A   8     -11.985 -33.316 -81.353  0.00  0.00    +0.160 C 
BRANCH  21  22
ATOM     22  C   CYS A   8     -13.445 -32.995 -81.111  0.00  0.00    +0.242 C 
ATOM     23  O   CYS A   8     -13.788 -31.862 -80.827  0.00  0.00    -0.273 OA
ATOM     24  N   THR A   9     -14.292 -34.006 -81.222  0.00  0.00    -0.296 N 
ATOM     25  H   THR A   9     -13.907 -34.954 -81.407  0.00  0.00    +0.150 HD
BRANCH  24  26
ATOM     26  CA  THR A   9     -15.730 -33.860 -81.099  0.00  0.00    +0.164 C 
BRANCH  26  27
ATOM     27  CB  THR A   9     -16.413 -35.259 -81.163  0.00  0.00    +0.136 C 
ATOM     28  CG2 THR A   9     -17.922 -35.150 -81.284  0.00  0.00    +0.034 C 
BRANCH  27  29
ATOM     29  OG1 THR A   9     -15.895 -36.004 -82.275  0.00  0.00    -0.382 OA
ATOM     30  HG1 THR A   9     -16.333 -36.891 -82.309  0.00  0.00    +0.210 HD
ENDBRANCH  27  29
ENDBRANCH  26  27
BRANCH  26  31
ATOM     31  C   THR A   9     -16.095 -33.201 -79.776  0.00  0.00    +0.229 C 
ATOM     32  O   THR A   9     -15.590 -33.604 -78.738  0.00  0.00    -0.286 OA
ENDBRANCH  26  31
ENDBRANCH  24  26
ENDBRANCH  21  22
BRANCH  21  33
ATOM     33  CB  CYS A   8     -11.252 -32.030 -81.670  0.00  0.00    +0.098 C 
ATOM     34  SG  CYS A   8      -9.581 -32.334 -82.058  0.00  0.00    -0.080 S 
ENDBRANCH  21  33
ENDBRANCH  18  21
ENDBRANCH  16  17
ENDBRANCH   9  10
ENDBRANCH   1   3
BRANCH   1  37
ATOM     35  C   THR A   4      -7.711 -35.040 -78.072  0.00  0.00    +0.243 C 
ATOM     36  O   THR A   4      -6.545 -34.686 -78.214  0.00  0.00    -0.273 OA
ATOM     37  N   ALA A   5      -8.342 -35.810 -78.954  0.00  0.00    -0.297 N 
ATOM     38  H   ALA A   5      -9.315 -36.118 -78.753  0.00  0.00    +0.150 HD
BRANCH  35  39
ATOM     39  CA  THR A   4      -8.510 -34.618 -76.845  0.00  0.00    +0.176 C 
BRANCH  39  41
ATOM     40  C   LEU A   3     -10.851 -34.707 -77.395  0.00  0.00    +0.241 C 
ATOM     41  N   THR A   4      -9.801 -35.282 -76.830  0.00  0.00    -0.295 N 
ATOM     42  H   THR A   4      -9.901 -36.211 -76.374  0.00  0.00    +0.150 HD
ATOM     43  O   LEU A   3     -10.770 -33.658 -78.025  0.00  0.00    -0.273 OA
BRANCH  40  44
ATOM     44  CA  LEU A   3     -12.181 -35.423 -77.266  0.00  0.00    +0.149 C 
BRANCH  44  47
ATOM     45  C   SER A   2     -13.208 -33.585 -76.090  0.00  0.00    +0.243 C 
ATOM     46  O   SER A   2     -12.574 -33.809 -75.066  0.00  0.00    -0.273 OA
ATOM     47  N   LEU A   3     -13.202 -34.406 -77.132  0.00  0.00    -0.297 N 
ATOM     48  H   LEU A   3     -13.939 -34.318 -77.861  0.00  0.00    +0.150 HD
BRANCH  45  49
ATOM     49  CA  SER A   2     -14.093 -32.353 -76.204  0.00  0.00    +0.178 C 
BRANCH  49  51
ATOM     50  C   GLY A   1     -15.368 -31.203 -74.463  0.00  0.00    +0.240 C 
ATOM     51  N   SER A   2     -14.207 -31.653 -74.926  0.00  0.00    -0.295 N 
ATOM     52  H   SER A   2     -13.348 -31.502 -74.359  0.00  0.00    +0.150 HD
ATOM     53  O   GLY A   1     -16.434 -31.377 -75.038  0.00  0.00    -0.274 OA
BRANCH  50  54
ATOM     54  CA  GLY A   1     -15.328 -30.447 -73.160  0.00  0.00    +0.169 C 
BRANCH  54  55
ATOM     55  N   GLY A   1     -16.528 -30.750 -72.409  0.00  0.00    -0.236 NA
ATOM     56  H   GLY A   1     -16.931 -31.706 -72.483  0.00  0.00    +0.142 HD
ENDBRANCH  54  55
ENDBRANCH  50  54
ENDBRANCH  49  51
BRANCH  49  57
ATOM     57  CB  SER A   2     -13.524 -31.424 -77.287  0.00  0.00    +0.166 C 
BRANCH  57  58
ATOM     58  OG  SER A   2     -12.110 -31.341 -77.215  0.00  0.00    -0.380 OA
ATOM     59  H   SER A   2     -11.721 -32.243 -77.340  0.00  0.00    +0.211 HD
ENDBRANCH  57  58
ENDBRANCH  49  57
ENDBRANCH  45  49
ENDBRANCH  44  47
BRANCH  44  60
ATOM     60  CB  LEU A   3     -12.441 -36.312 -78.478  0.00  0.00    +0.029 C 
BRANCH  60  61
ATOM     61  CG  LEU A   3     -13.741 -37.094 -78.532  0.00  0.00    +0.002 C 
ATOM     62  CD2 LEU A   3     -13.894 -38.015 -77.331  0.00  0.00    +0.000 C 
ATOM     63  CD1 LEU A   3     -13.712 -37.857 -79.813  0.00  0.00    +0.000 C 
ENDBRANCH  60  61
ENDBRANCH  44  60
ENDBRANCH  40  44
ENDBRANCH  39  41
BRANCH  39  64
ATOM     64  CB  THR A   4      -7.698 -34.908 -75.583  0.00  0.00    +0.137 C 
ATOM     65  CG2 THR A   4      -8.471 -34.517 -74.340  0.00  0.00    +0.034 C 
BRANCH  64  66
ATOM     66  OG1 THR A   4      -7.371 -36.288 -75.538  0.00  0.00    -0.382 OA
ATOM     67  HG1 THR A   4      -6.845 -36.475 -74.720  0.00  0.00    +0.210 HD
ENDBRANCH  64  66
ENDBRANCH  39  64
ENDBRANCH  35  39
ENDBRANCH   1  37
TORSDOF 25
REMARK  Name = ../refined-set-2016/4ygf/4ygf_pocket.pdb
REMARK  145 active torsions:
REMARK  status: ('A' for Active; 'I' for Inactive)
REMARK    1  A    between atoms: _1  and  _3
REMARK    2  A    between atoms: _3  and  _4
REMARK    3  A    between atoms: _3  and  _6
REMARK    4  A    between atoms: _6  and  _7
REMARK    5  A    between atoms: _17  and  _19
REMARK    6  A    between atoms: _19  and  _20
REMARK    7  A    between atoms: _19  and  _22
REMARK    8  A    between atoms: _22  and  _23
REMARK    9  A    between atoms: _28  and  _29
REMARK   10  A    between atoms: _31  and  _33
REMARK   11  A    between atoms: _33  and  _34
REMARK   12  A    between atoms: _33  and  _36
REMARK   13  A    between atoms: _36  and  _37
REMARK   14  A    between atoms: _40  and  _41
REMARK   15  A    between atoms: _46  and  _48
REMARK   16  A    between atoms: _48  and  _49
REMARK   17  A    between atoms: _48  and  _51
REMARK   18  A    between atoms: _51  and  _52
REMARK   19  A    between atoms: _55  and  _57
REMARK   20  A    between atoms: _57  and  _58
REMARK   21  A    between atoms: _57  and  _60
REMARK   22  A    between atoms: _60  and  _61
REMARK   23  A    between atoms: _66  and  _68
REMARK   24  A    between atoms: _68  and  _69
REMARK   25  A    between atoms: _68  and  _71
REMARK   26  A    between atoms: _71  and  _72
REMARK   27  A    between atoms: _75  and  _77
REMARK   28  A    between atoms: _77  and  _78
REMARK   29  A    between atoms: _77  and  _80
REMARK   30  A    between atoms: _80  and  _81
REMARK   31  A    between atoms: _81  and  _82
REMARK   32  A    between atoms: _82  and  _83
REMARK   33  A    between atoms: _83  and  _84
REMARK   34  A    between atoms: _88  and  _90
REMARK   35  A    between atoms: _90  and  _91
REMARK   36  A    between atoms: _90  and  _93
REMARK   37  A    between atoms: _93  and  _94
REMARK   38  A    between atoms: _97  and  _99
REMARK   39  A    between atoms: _99  and  _100
REMARK   40  A    between atoms: _99  and  _102
REMARK   41  A    between atoms: _102  and  _103
REMARK   42  A    between atoms: _108  and  _110
REMARK   43  A    between atoms: _110  and  _111
REMARK   44  A    between atoms: _110  and  _113
REMARK   45  A    between atoms: _116  and  _118
REMARK   46  A    between atoms: _129  and  _132
REMARK   47  A    between atoms: _132  and  _133
REMARK   48  A    between atoms: _141  and  _142
REMARK   49  A    between atoms: _150  and  _152
REMARK   50  A    between atoms: _152  and  _153
REMARK   51  A    between atoms: _152  and  _155
REMARK   52  A    between atoms: _155  and  _156
REMARK   53  A    between atoms: _156  and  _157
REMARK   54  A    between atoms: _160  and  _162
REMARK   55  A    between atoms: _162  and  _163
REMARK   56  A    between atoms: _162  and  _165
REMARK   57  A    between atoms: _165  and  _166
REMARK   58  A    between atoms: _172  and  _174
REMARK   59  A    between atoms: _174  and  _175
REMARK   60  A    between atoms: _174  and  _177
REMARK   61  A    between atoms: _177  and  _178
REMARK   62  A    between atoms: _180  and  _182
REMARK   63  A    between atoms: _182  and  _183
REMARK   64  A    between atoms: _186  and  _188
REMARK   65  A    between atoms: _188  and  _189
REMARK   66  A    between atoms: _188  and  _191
REMARK   67  A    between atoms: _191  and  _192
REMARK   68  A    between atoms: _193  and  ZN_401
REMARK   69  A    between atoms: _197  and  _199
REMARK   70  A    between atoms: _199  and  _200
REMARK   71  A    between atoms: _199  and  _202
REMARK   72  A    between atoms: _202  and  _203
REMARK   73  A    between atoms: _209  and  _211
REMARK   74  A    between atoms: _211  and  _212
REMARK   75  A    between atoms: _211  and  _214
REMARK   76  A    between atoms: _217  and  _219
REMARK   77  A    between atoms: _219  and  _220
REMARK   78  A    between atoms: _219  and  _222
REMARK   79  A    between atoms: _222  and  _223
REMARK   80  A    between atoms: _228  and  _230
REMARK   81  A    between atoms: _230  and  _231
REMARK   82  A    between atoms: _230  and  _233
REMARK   83  A    between atoms: _233  and  _234
REMARK   84  A    between atoms: _234  and  _235
REMARK   85  A    between atoms: _235  and  _236
REMARK   86  A    between atoms: _236  and  _237
REMARK   87  A    between atoms: _241  and  _243
REMARK   88  A    between atoms: _243  and  _244
REMARK   89  A    between atoms: _243  and  _246
REMARK   90  A    between atoms: _246  and  _247
REMARK   91  A    between atoms: _250  and  _252
REMARK   92  A    between atoms: _252  and  _253
REMARK   93  A    between atoms: _252  and  _255
REMARK   94  A    between atoms: _255  and  _256
REMARK   95  A    between atoms: _259  and  _261
REMARK   96  A    between atoms: _261  and  _262
REMARK   97  A    between atoms: _261  and  _264
REMARK   98  A    between atoms: _267  and  _269
REMARK   99  A    between atoms: _269  and  _270
REMARK  100  A    between atoms: _269  and  _272
REMARK  101  A    between atoms: _272  and  _273
REMARK  102  A    between atoms: _276  and  _278
REMARK  103  A    between atoms: _278  and  _279
REMARK  104  A    between atoms: _282  and  _284
REMARK  105  A    between atoms: _284  and  _285
REMARK  106  A    between atoms: _287  and  _289
REMARK  107  A    between atoms: _289  and  _290
REMARK  108  A    between atoms: _289  and  _292
REMARK  109  A    between atoms: _292  and  _293
REMARK  110  A    between atoms: _295  and  _297
REMARK  111  A    between atoms: _297  and  _298
REMARK  112  A    between atoms: _297  and  _300
REMARK  113  A    between atoms: _300  and  _301
REMARK  114  A    between atoms: _304  and  _306
REMARK  115  A    between atoms: _306  and  _307
REMARK  116  A    between atoms: _306  and  _309
REMARK  117  A    between atoms: _309  and  _310
REMARK  118  A    between atoms: _313  and  _315
REMARK  119  A    between atoms: _315  and  _316
REMARK  120  A    between atoms: _320  and  _321
REMARK  121  A    between atoms: _327  and  _328
REMARK  122  A    between atoms: _333  and  _335
REMARK  123  A    between atoms: _335  and  _336
REMARK  124  A    between atoms: _335  and  _338
REMARK  125  A    between atoms: _340  and  _342
REMARK  126  A    between atoms: _342  and  _343
REMARK  127  A    between atoms: _342  and  _345
REMARK  128  A    between atoms: _345  and  _346
REMARK  129  A    between atoms: _349  and  _351
REMARK  130  A    between atoms: _351  and  _352
REMARK  131  A    between atoms: _351  and  _354
REMARK  132  A    between atoms: _357  and  _359
REMARK  133  A    between atoms: _359  and  _360
REMARK  134  A    between atoms: _359  and  _362
REMARK  135  A    between atoms: _362  and  _363
REMARK  136  A    between atoms: _373  and  _375
REMARK  137  A    between atoms: _375  and  _376
REMARK  138  A    between atoms: _375  and  _378
REMARK  139  A    between atoms: _378  and  _379
REMARK  140  A    between atoms: _384  and  _386
REMARK  141  A    between atoms: _386  and  _387
REMARK  142  A    between atoms: _386  and  _389
REMARK  143  A    between atoms: _389  and  _390
REMARK  144  A    between atoms: _390  and  _391
REMARK  145  A    between atoms: _391  and  _392
REMARK                            x       y       z     vdW  Elec       q    Type
REMARK                         _______ _______ _______ _____ _____    ______ ____
ROOT
ATOM      1  CA  VAL A   1     -17.938 -34.743 -74.267  0.00  0.00    +0.133 C 
ENDROOT
BRANCH   1   2
ATOM      2  CB  VAL A   1     -16.458 -35.010 -74.613  0.00  0.00    +0.023 C 
ATOM      3  CG2 VAL A   1     -15.951 -36.206 -73.855  0.00  0.00    +0.002 C 
ATOM      4  CG1 VAL A   1     -16.315 -35.278 -76.068  0.00  0.00    +0.002 C 
ENDBRANCH   1   2
BRANCH   1   5
ATOM      5  N   VAL A   1     -18.482 -33.655 -75.063  0.00  0.00    -0.239 NA
ATOM      6  H   VAL A   1     -17.849 -32.893 -75.381  0.00  0.00    +0.142 HD
ENDBRANCH   1   5
BRANCH   1   7
ATOM      7  C   VAL A   1     -18.068 -34.404 -72.776  0.00  0.00    +0.224 C 
ATOM      8  O   VAL A   1     -17.606 -33.359 -72.344  0.00  0.00    -0.287 OA
ENDBRANCH   1   7
TORSDOF 3
REMARK  Name = ../refined-set-2016/4ygf/4ygf_pocket.pdb
REMARK  145 active torsions:
REMARK  status: ('A' for Active; 'I' for Inactive)
REMARK    1  A    between atoms: _1  and  _3
REMARK    2  A    between atoms: _3  and  _4
REMARK    3  A    between atoms: _3  and  _6
REMARK    4  A    between atoms: _6  and  _7
REMARK    5  A    between atoms: _17  and  _19
REMARK    6  A    between atoms: _19  and  _20
REMARK    7  A    between atoms: _19  and  _22
REMARK    8  A    between atoms: _22  and  _23
REMARK    9  A    between atoms: _28  and  _29
REMARK   10  A    between atoms: _31  and  _33
REMARK   11  A    between atoms: _33  and  _34
REMARK   12  A    between atoms: _33  and  _36
REMARK   13  A    between atoms: _36  and  _37
REMARK   14  A    between atoms: _40  and  _41
REMARK   15  A    between atoms: _46  and  _48
REMARK   16  A    between atoms: _48  and  _49
REMARK   17  A    between atoms: _48  and  _51
REMARK   18  A    between atoms: _51  and  _52
REMARK   19  A    between atoms: _55  and  _57
REMARK   20  A    between atoms: _57  and  _58
REMARK   21  A    between atoms: _57  and  _60
REMARK   22  A    between atoms: _60  and  _61
REMARK   23  A    between atoms: _66  and  _68
REMARK   24  A    between atoms: _68  and  _69
REMARK   25  A    between atoms: _68  and  _71
REMARK   26  A    between atoms: _71  and  _72
REMARK   27  A    between atoms: _75  and  _77
REMARK   28  A    between atoms: _77  and  _78
REMARK   29  A    between atoms: _77  and  _80
REMARK   30  A    between atoms: _80  and  _81
REMARK   31  A    between atoms: _81  and  _82
REMARK   32  A    between atoms: _82  and  _83
REMARK   33  A    between atoms: _83  and  _84
REMARK   34  A    between atoms: _88  and  _90
REMARK   35  A    between atoms: _90  and  _91
REMARK   36  A    between atoms: _90  and  _93
REMARK   37  A    between atoms: _93  and  _94
REMARK   38  A    between atoms: _97  and  _99
REMARK   39  A    between atoms: _99  and  _100
REMARK   40  A    between atoms: _99  and  _102
REMARK   41  A    between atoms: _102  and  _103
REMARK   42  A    between atoms: _108  and  _110
REMARK   43  A    between atoms: _110  and  _111
REMARK   44  A    between atoms: _110  and  _113
REMARK   45  A    between atoms: _116  and  _118
REMARK   46  A    between atoms: _129  and  _132
REMARK   47  A    between atoms: _132  and  _133
REMARK   48  A    between atoms: _141  and  _142
REMARK   49  A    between atoms: _150  and  _152
REMARK   50  A    between atoms: _152  and  _153
REMARK   51  A    between atoms: _152  and  _155
REMARK   52  A    between atoms: _155  and  _156
REMARK   53  A    between atoms: _156  and  _157
REMARK   54  A    between atoms: _160  and  _162
REMARK   55  A    between atoms: _162  and  _163
REMARK   56  A    between atoms: _162  and  _165
REMARK   57  A    between atoms: _165  and  _166
REMARK   58  A    between atoms: _172  and  _174
REMARK   59  A    between atoms: _174  and  _175
REMARK   60  A    between atoms: _174  and  _177
REMARK   61  A    between atoms: _177  and  _178
REMARK   62  A    between atoms: _180  and  _182
REMARK   63  A    between atoms: _182  and  _183
REMARK   64  A    between atoms: _186  and  _188
REMARK   65  A    between atoms: _188  and  _189
REMARK   66  A    between atoms: _188  and  _191
REMARK   67  A    between atoms: _191  and  _192
REMARK   68  A    between atoms: _193  and  ZN_401
REMARK   69  A    between atoms: _197  and  _199
REMARK   70  A    between atoms: _199  and  _200
REMARK   71  A    between atoms: _199  and  _202
REMARK   72  A    between atoms: _202  and  _203
REMARK   73  A    between atoms: _209  and  _211
REMARK   74  A    between atoms: _211  and  _212
REMARK   75  A    between atoms: _211  and  _214
REMARK   76  A    between atoms: _217  and  _219
REMARK   77  A    between atoms: _219  and  _220
REMARK   78  A    between atoms: _219  and  _222
REMARK   79  A    between atoms: _222  and  _223
REMARK   80  A    between atoms: _228  and  _230
REMARK   81  A    between atoms: _230  and  _231
REMARK   82  A    between atoms: _230  and  _233
REMARK   83  A    between atoms: _233  and  _234
REMARK   84  A    between atoms: _234  and  _235
REMARK   85  A    between atoms: _235  and  _236
REMARK   86  A    between atoms: _236  and  _237
REMARK   87  A    between atoms: _241  and  _243
REMARK   88  A    between atoms: _243  and  _244
REMARK   89  A    between atoms: _243  and  _246
REMARK   90  A    between atoms: _246  and  _247
REMARK   91  A    between atoms: _250  and  _252
REMARK   92  A    between atoms: _252  and  _253
REMARK   93  A    between atoms: _252  and  _255
REMARK   94  A    between atoms: _255  and  _256
REMARK   95  A    between atoms: _259  and  _261
REMARK   96  A    between atoms: _261  and  _262
REMARK   97  A    between atoms: _261  and  _264
REMARK   98  A    between atoms: _267  and  _269
REMARK   99  A    between atoms: _269  and  _270
REMARK  100  A    between atoms: _269  and  _272
REMARK  101  A    between atoms: _272  and  _273
REMARK  102  A    between atoms: _276  and  _278
REMARK  103  A    between atoms: _278  and  _279
REMARK  104  A    between atoms: _282  and  _284
REMARK  105  A    between atoms: _284  and  _285
REMARK  106  A    between atoms: _287  and  _289
REMARK  107  A    between atoms: _289  and  _290
REMARK  108  A    between atoms: _289  and  _292
REMARK  109  A    between atoms: _292  and  _293
REMARK  110  A    between atoms: _295  and  _297
REMARK  111  A    between atoms: _297  and  _298
REMARK  112  A    between atoms: _297  and  _300
REMARK  113  A    between atoms: _300  and  _301
REMARK  114  A    between atoms: _304  and  _306
REMARK  115  A    between atoms: _306  and  _307
REMARK  116  A    between atoms: _306  and  _309
REMARK  117  A    between atoms: _309  and  _310
REMARK  118  A    between atoms: _313  and  _315
REMARK  119  A    between atoms: _315  and  _316
REMARK  120  A    between atoms: _320  and  _321
REMARK  121  A    between atoms: _327  and  _328
REMARK  122  A    between atoms: _333  and  _335
REMARK  123  A    between atoms: _335  and  _336
REMARK  124  A    between atoms: _335  and  _338
REMARK  125  A    between atoms: _340  and  _342
REMARK  126  A    between atoms: _342  and  _343
REMARK  127  A    between atoms: _342  and  _345
REMARK  128  A    between atoms: _345  and  _346
REMARK  129  A    between atoms: _349  and  _351
REMARK  130  A    between atoms: _351  and  _352
REMARK  131  A    between atoms: _351  and  _354
REMARK  132  A    between atoms: _357  and  _359
REMARK  133  A    between atoms: _359  and  _360
REMARK  134  A    between atoms: _359  and  _362
REMARK  135  A    between atoms: _362  and  _363
REMARK  136  A    between atoms: _373  and  _375
REMARK  137  A    between atoms: _375  and  _376
REMARK  138  A    between atoms: _375  and  _378
REMARK  139  A    between atoms: _378  and  _379
REMARK  140  A    between atoms: _384  and  _386
REMARK  141  A    between atoms: _386  and  _387
REMARK  142  A    between atoms: _386  and  _389
REMARK  143  A    between atoms: _389  and  _390
REMARK  144  A    between atoms: _390  and  _391
REMARK  145  A    between atoms: _391  and  _392
REMARK                            x       y       z     vdW  Elec       q    Type
REMARK                         _______ _______ _______ _____ _____    ______ ____
ROOT
ATOM      1  CG  TRP A   1     -13.872 -34.114 -70.422  0.00  0.00    -0.002 A 
ATOM      2  CD2 TRP A   1     -12.922 -35.114 -70.802  0.00  0.00    +0.013 A 
ATOM      3  CE3 TRP A   1     -12.241 -36.126 -70.109  0.00  0.00    +0.001 A 
ATOM      4  CZ3 TRP A   1     -11.346 -36.927 -70.807  0.00  0.00    +0.000 A 
ATOM      5  CH2 TRP A   1     -11.136 -36.752 -72.175  0.00  0.00    +0.001 A 
ATOM      6  CZ2 TRP A   1     -11.787 -35.775 -72.877  0.00  0.00    +0.017 A 
ATOM      7  CE2 TRP A   1     -12.676 -34.953 -72.174  0.00  0.00    +0.056 A 
ATOM      8  NE1 TRP A   1     -13.453 -33.911 -72.607  0.00  0.00    -0.352 N 
ATOM      9  HE1 TRP A   1     -13.488 -33.548 -73.581  0.00  0.00    +0.166 HD
ATOM     10  CD1 TRP A   1     -14.173 -33.426 -71.554  0.00  0.00    +0.068 A 
ENDROOT
BRANCH   1  11
ATOM     11  CB  TRP A   1     -14.450 -33.897 -69.060  0.00  0.00    +0.053 C 
BRANCH  11  12
ATOM     12  CA  TRP A   1     -15.525 -34.908 -68.697  0.00  0.00    +0.137 C 
BRANCH  12  13
ATOM     13  N   TRP A   1     -16.767 -34.575 -69.370  0.00  0.00    -0.239 NA
ATOM     14  H   TRP A   1     -17.045 -33.579 -69.483  0.00  0.00    +0.142 HD
ENDBRANCH  12  13
BRANCH  12  15
ATOM     15  C   TRP A   1     -15.678 -34.960 -67.185  0.00  0.00    +0.224 C 
ATOM     16  O   TRP A   1     -16.231 -34.048 -66.585  0.00  0.00    -0.287 OA
ENDBRANCH  12  15
ENDBRANCH  11  12
ENDBRANCH   1  11
TORSDOF 4
REMARK  Name = ../refined-set-2016/4ygf/4ygf_pocket.pdb
REMARK  145 active torsions:
REMARK  status: ('A' for Active; 'I' for Inactive)
REMARK    1  A    between atoms: _1  and  _3
REMARK    2  A    between atoms: _3  and  _4
REMARK    3  A    between atoms: _3  and  _6
REMARK    4  A    between atoms: _6  and  _7
REMARK    5  A    between atoms: _17  and  _19
REMARK    6  A    between atoms: _19  and  _20
REMARK    7  A    between atoms: _19  and  _22
REMARK    8  A    between atoms: _22  and  _23
REMARK    9  A    between atoms: _28  and  _29
REMARK   10  A    between atoms: _31  and  _33
REMARK   11  A    between atoms: _33  and  _34
REMARK   12  A    between atoms: _33  and  _36
REMARK   13  A    between atoms: _36  and  _37
REMARK   14  A    between atoms: _40  and  _41
REMARK   15  A    between atoms: _46  and  _48
REMARK   16  A    between atoms: _48  and  _49
REMARK   17  A    between atoms: _48  and  _51
REMARK   18  A    between atoms: _51  and  _52
REMARK   19  A    between atoms: _55  and  _57
REMARK   20  A    between atoms: _57  and  _58
REMARK   21  A    between atoms: _57  and  _60
REMARK   22  A    between atoms: _60  and  _61
REMARK   23  A    between atoms: _66  and  _68
REMARK   24  A    between atoms: _68  and  _69
REMARK   25  A    between atoms: _68  and  _71
REMARK   26  A    between atoms: _71  and  _72
REMARK   27  A    between atoms: _75  and  _77
REMARK   28  A    between atoms: _77  and  _78
REMARK   29  A    between atoms: _77  and  _80
REMARK   30  A    between atoms: _80  and  _81
REMARK   31  A    between atoms: _81  and  _82
REMARK   32  A    between atoms: _82  and  _83
REMARK   33  A    between atoms: _83  and  _84
REMARK   34  A    between atoms: _88  and  _90
REMARK   35  A    between atoms: _90  and  _91
REMARK   36  A    between atoms: _90  and  _93
REMARK   37  A    between atoms: _93  and  _94
REMARK   38  A    between atoms: _97  and  _99
REMARK   39  A    between atoms: _99  and  _100
REMARK   40  A    between atoms: _99  and  _102
REMARK   41  A    between atoms: _102  and  _103
REMARK   42  A    between atoms: _108  and  _110
REMARK   43  A    between atoms: _110  and  _111
REMARK   44  A    between atoms: _110  and  _113
REMARK   45  A    between atoms: _116  and  _118
REMARK   46  A    between atoms: _129  and  _132
REMARK   47  A    between atoms: _132  and  _133
REMARK   48  A    between atoms: _141  and  _142
REMARK   49  A    between atoms: _150  and  _152
REMARK   50  A    between atoms: _152  and  _153
REMARK   51  A    between atoms: _152  and  _155
REMARK   52  A    between atoms: _155  and  _156
REMARK   53  A    between atoms: _156  and  _157
REMARK   54  A    between atoms: _160  and  _162
REMARK   55  A    between atoms: _162  and  _163
REMARK   56  A    between atoms: _162  and  _165
REMARK   57  A    between atoms: _165  and  _166
REMARK   58  A    between atoms: _172  and  _174
REMARK   59  A    between atoms: _174  and  _175
REMARK   60  A    between atoms: _174  and  _177
REMARK   61  A    between atoms: _177  and  _178
REMARK   62  A    between atoms: _180  and  _182
REMARK   63  A    between atoms: _182  and  _183
REMARK   64  A    between atoms: _186  and  _188
REMARK   65  A    between atoms: _188  and  _189
REMARK   66  A    between atoms: _188  and  _191
REMARK   67  A    between atoms: _191  and  _192
REMARK   68  A    between atoms: _193  and  ZN_401
REMARK   69  A    between atoms: _197  and  _199
REMARK   70  A    between atoms: _199  and  _200
REMARK   71  A    between atoms: _199  and  _202
REMARK   72  A    between atoms: _202  and  _203
REMARK   73  A    between atoms: _209  and  _211
REMARK   74  A    between atoms: _211  and  _212
REMARK   75  A    between atoms: _211  and  _214
REMARK   76  A    between atoms: _217  and  _219
REMARK   77  A    between atoms: _219  and  _220
REMARK   78  A    between atoms: _219  and  _222
REMARK   79  A    between atoms: _222  and  _223
REMARK   80  A    between atoms: _228  and  _230
REMARK   81  A    between atoms: _230  and  _231
REMARK   82  A    between atoms: _230  and  _233
REMARK   83  A    between atoms: _233  and  _234
REMARK   84  A    between atoms: _234  and  _235
REMARK   85  A    between atoms: _235  and  _236
REMARK   86  A    between atoms: _236  and  _237
REMARK   87  A    between atoms: _241  and  _243
REMARK   88  A    between atoms: _243  and  _244
REMARK   89  A    between atoms: _243  and  _246
REMARK   90  A    between atoms: _246  and  _247
REMARK   91  A    between atoms: _250  and  _252
REMARK   92  A    between atoms: _252  and  _253
REMARK   93  A    between atoms: _252  and  _255
REMARK   94  A    between atoms: _255  and  _256
REMARK   95  A    between atoms: _259  and  _261
REMARK   96  A    between atoms: _261  and  _262
REMARK   97  A    between atoms: _261  and  _264
REMARK   98  A    between atoms: _267  and  _269
REMARK   99  A    between atoms: _269  and  _270
REMARK  100  A    between atoms: _269  and  _272
REMARK  101  A    between atoms: _272  and  _273
REMARK  102  A    between atoms: _276  and  _278
REMARK  103  A    between atoms: _278  and  _279
REMARK  104  A    between atoms: _282  and  _284
REMARK  105  A    between atoms: _284  and  _285
REMARK  106  A    between atoms: _287  and  _289
REMARK  107  A    between atoms: _289  and  _290
REMARK  108  A    between atoms: _289  and  _292
REMARK  109  A    between atoms: _292  and  _293
REMARK  110  A    between atoms: _295  and  _297
REMARK  111  A    between atoms: _297  and  _298
REMARK  112  A    between atoms: _297  and  _300
REMARK  113  A    between atoms: _300  and  _301
REMARK  114  A    between atoms: _304  and  _306
REMARK  115  A    between atoms: _306  and  _307
REMARK  116  A    between atoms: _306  and  _309
REMARK  117  A    between atoms: _309  and  _310
REMARK  118  A    between atoms: _313  and  _315
REMARK  119  A    between atoms: _315  and  _316
REMARK  120  A    between atoms: _320  and  _321
REMARK  121  A    between atoms: _327  and  _328
REMARK  122  A    between atoms: _333  and  _335
REMARK  123  A    between atoms: _335  and  _336
REMARK  124  A    between atoms: _335  and  _338
REMARK  125  A    between atoms: _340  and  _342
REMARK  126  A    between atoms: _342  and  _343
REMARK  127  A    between atoms: _342  and  _345
REMARK  128  A    between atoms: _345  and  _346
REMARK  129  A    between atoms: _349  and  _351
REMARK  130  A    between atoms: _351  and  _352
REMARK  131  A    between atoms: _351  and  _354
REMARK  132  A    between atoms: _357  and  _359
REMARK  133  A    between atoms: _359  and  _360
REMARK  134  A    between atoms: _359  and  _362
REMARK  135  A    between atoms: _362  and  _363
REMARK  136  A    between atoms: _373  and  _375
REMARK  137  A    between atoms: _375  and  _376
REMARK  138  A    between atoms: _375  and  _378
REMARK  139  A    between atoms: _378  and  _379
REMARK  140  A    between atoms: _384  and  _386
REMARK  141  A    between atoms: _386  and  _387
REMARK  142  A    between atoms: _386  and  _389
REMARK  143  A    between atoms: _389  and  _390
REMARK  144  A    between atoms: _390  and  _391
REMARK  145  A    between atoms: _391  and  _392
REMARK                            x       y       z     vdW  Elec       q    Type
REMARK                         _______ _______ _______ _____ _____    ______ ____
ROOT
ATOM      1  CB  ASN A   1       0.005 -39.752 -77.023  0.00  0.00    +0.110 C 
ENDROOT
BRANCH   1   2
ATOM      2  CG  ASN A   1      -0.219 -40.485 -75.731  0.00  0.00    +0.221 C 
ATOM      3  OD1 ASN A   1       0.561 -40.360 -74.798  0.00  0.00    -0.275 OA
ATOM      4  ND2 ASN A   1      -1.297 -41.243 -75.660  0.00  0.00    -0.329 N 
ATOM      5 HD21 ASN A   1      -1.510 -41.763 -74.785  0.00  0.00    +0.145 HD
ATOM      6 HD22 ASN A   1      -1.933 -41.320 -76.479  0.00  0.00    +0.145 HD
ENDBRANCH   1   2
BRANCH   1   7
ATOM      7  CA  ASN A   1       0.655 -38.387 -76.821  0.00  0.00    +0.142 C 
BRANCH   7   8
ATOM      8  N   ASN A   1       1.983 -38.532 -76.227  0.00  0.00    -0.239 NA
ATOM      9  H   ASN A   1       2.050 -38.938 -75.272  0.00  0.00    +0.142 HD
ENDBRANCH   7   8
BRANCH   7  10
ATOM     10  C   ASN A   1      -0.226 -37.486 -75.954  0.00  0.00    +0.225 C 
ATOM     11  O   ASN A   1      -1.324 -37.850 -75.559  0.00  0.00    -0.287 OA
ENDBRANCH   7  10
ENDBRANCH   1   7
TORSDOF 4
REMARK  Name = ../refined-set-2016/4ygf/4ygf_pocket.pdb
REMARK  145 active torsions:
REMARK  status: ('A' for Active; 'I' for Inactive)
REMARK    1  A    between atoms: _1  and  _3
REMARK    2  A    between atoms: _3  and  _4
REMARK    3  A    between atoms: _3  and  _6
REMARK    4  A    between atoms: _6  and  _7
REMARK    5  A    between atoms: _17  and  _19
REMARK    6  A    between atoms: _19  and  _20
REMARK    7  A    between atoms: _19  and  _22
REMARK    8  A    between atoms: _22  and  _23
REMARK    9  A    between atoms: _28  and  _29
REMARK   10  A    between atoms: _31  and  _33
REMARK   11  A    between atoms: _33  and  _34
REMARK   12  A    between atoms: _33  and  _36
REMARK   13  A    between atoms: _36  and  _37
REMARK   14  A    between atoms: _40  and  _41
REMARK   15  A    between atoms: _46  and  _48
REMARK   16  A    between atoms: _48  and  _49
REMARK   17  A    between atoms: _48  and  _51
REMARK   18  A    between atoms: _51  and  _52
REMARK   19  A    between atoms: _55  and  _57
REMARK   20  A    between atoms: _57  and  _58
REMARK   21  A    between atoms: _57  and  _60
REMARK   22  A    between atoms: _60  and  _61
REMARK   23  A    between atoms: _66  and  _68
REMARK   24  A    between atoms: _68  and  _69
REMARK   25  A    between atoms: _68  and  _71
REMARK   26  A    between atoms: _71  and  _72
REMARK   27  A    between atoms: _75  and  _77
REMARK   28  A    between atoms: _77  and  _78
REMARK   29  A    between atoms: _77  and  _80
REMARK   30  A    between atoms: _80  and  _81
REMARK   31  A    between atoms: _81  and  _82
REMARK   32  A    between atoms: _82  and  _83
REMARK   33  A    between atoms: _83  and  _84
REMARK   34  A    between atoms: _88  and  _90
REMARK   35  A    between atoms: _90  and  _91
REMARK   36  A    between atoms: _90  and  _93
REMARK   37  A    between atoms: _93  and  _94
REMARK   38  A    between atoms: _97  and  _99
REMARK   39  A    between atoms: _99  and  _100
REMARK   40  A    between atoms: _99  and  _102
REMARK   41  A    between atoms: _102  and  _103
REMARK   42  A    between atoms: _108  and  _110
REMARK   43  A    between atoms: _110  and  _111
REMARK   44  A    between atoms: _110  and  _113
REMARK   45  A    between atoms: _116  and  _118
REMARK   46  A    between atoms: _129  and  _132
REMARK   47  A    between atoms: _132  and  _133
REMARK   48  A    between atoms: _141  and  _142
REMARK   49  A    between atoms: _150  and  _152
REMARK   50  A    between atoms: _152  and  _153
REMARK   51  A    between atoms: _152  and  _155
REMARK   52  A    between atoms: _155  and  _156
REMARK   53  A    between atoms: _156  and  _157
REMARK   54  A    between atoms: _160  and  _162
REMARK   55  A    between atoms: _162  and  _163
REMARK   56  A    between atoms: _162  and  _165
REMARK   57  A    between atoms: _165  and  _166
REMARK   58  A    between atoms: _172  and  _174
REMARK   59  A    between atoms: _174  and  _175
REMARK   60  A    between atoms: _174  and  _177
REMARK   61  A    between atoms: _177  and  _178
REMARK   62  A    between atoms: _180  and  _182
REMARK   63  A    between atoms: _182  and  _183
REMARK   64  A    between atoms: _186  and  _188
REMARK   65  A    between atoms: _188  and  _189
REMARK   66  A    between atoms: _188  and  _191
REMARK   67  A    between atoms: _191  and  _192
REMARK   68  A    between atoms: _193  and  ZN_401
REMARK   69  A    between atoms: _197  and  _199
REMARK   70  A    between atoms: _199  and  _200
REMARK   71  A    between atoms: _199  and  _202
REMARK   72  A    between atoms: _202  and  _203
REMARK   73  A    between atoms: _209  and  _211
REMARK   74  A    between atoms: _211  and  _212
REMARK   75  A    between atoms: _211  and  _214
REMARK   76  A    between atoms: _217  and  _219
REMARK   77  A    between atoms: _219  and  _220
REMARK   78  A    between atoms: _219  and  _222
REMARK   79  A    between atoms: _222  and  _223
REMARK   80  A    between atoms: _228  and  _230
REMARK   81  A    between atoms: _230  and  _231
REMARK   82  A    between atoms: _230  and  _233
REMARK   83  A    between atoms: _233  and  _234
REMARK   84  A    between atoms: _234  and  _235
REMARK   85  A    between atoms: _235  and  _236
REMARK   86  A    between atoms: _236  and  _237
REMARK   87  A    between atoms: _241  and  _243
REMARK   88  A    between atoms: _243  and  _244
REMARK   89  A    between atoms: _243  and  _246
REMARK   90  A    between atoms: _246  and  _247
REMARK   91  A    between atoms: _250  and  _252
REMARK   92  A    between atoms: _252  and  _253
REMARK   93  A    between atoms: _252  and  _255
REMARK   94  A    between atoms: _255  and  _256
REMARK   95  A    between atoms: _259  and  _261
REMARK   96  A    between atoms: _261  and  _262
REMARK   97  A    between atoms: _261  and  _264
REMARK   98  A    between atoms: _267  and  _269
REMARK   99  A    between atoms: _269  and  _270
REMARK  100  A    between atoms: _269  and  _272
REMARK  101  A    between atoms: _272  and  _273
REMARK  102  A    between atoms: _276  and  _278
REMARK  103  A    between atoms: _278  and  _279
REMARK  104  A    between atoms: _282  and  _284
REMARK  105  A    between atoms: _284  and  _285
REMARK  106  A    between atoms: _287  and  _289
REMARK  107  A    between atoms: _289  and  _290
REMARK  108  A    between atoms: _289  and  _292
REMARK  109  A    between atoms: _292  and  _293
REMARK  110  A    between atoms: _295  and  _297
REMARK  111  A    between atoms: _297  and  _298
REMARK  112  A    between atoms: _297  and  _300
REMARK  113  A    between atoms: _300  and  _301
REMARK  114  A    between atoms: _304  and  _306
REMARK  115  A    between atoms: _306  and  _307
REMARK  116  A    between atoms: _306  and  _309
REMARK  117  A    between atoms: _309  and  _310
REMARK  118  A    between atoms: _313  and  _315
REMARK  119  A    between atoms: _315  and  _316
REMARK  120  A    between atoms: _320  and  _321
REMARK  121  A    between atoms: _327  and  _328
REMARK  122  A    between atoms: _333  and  _335
REMARK  123  A    between atoms: _335  and  _336
REMARK  124  A    between atoms: _335  and  _338
REMARK  125  A    between atoms: _340  and  _342
REMARK  126  A    between atoms: _342  and  _343
REMARK  127  A    between atoms: _342  and  _345
REMARK  128  A    between atoms: _345  and  _346
REMARK  129  A    between atoms: _349  and  _351
REMARK  130  A    between atoms: _351  and  _352
REMARK  131  A    between atoms: _351  and  _354
REMARK  132  A    between atoms: _357  and  _359
REMARK  133  A    between atoms: _359  and  _360
REMARK  134  A    between atoms: _359  and  _362
REMARK  135  A    between atoms: _362  and  _363
REMARK  136  A    between atoms: _373  and  _375
REMARK  137  A    between atoms: _375  and  _376
REMARK  138  A    between atoms: _375  and  _378
REMARK  139  A    between atoms: _378  and  _379
REMARK  140  A    between atoms: _384  and  _386
REMARK  141  A    between atoms: _386  and  _387
REMARK  142  A    between atoms: _386  and  _389
REMARK  143  A    between atoms: _389  and  _390
REMARK  144  A    between atoms: _390  and  _391
REMARK  145  A    between atoms: _391  and  _392
REMARK                            x       y       z     vdW  Elec       q    Type
REMARK                         _______ _______ _______ _____ _____    ______ ____
ROOT
ATOM      1  NE  ARG A   1      -6.424 -30.457 -78.832  0.00  0.00    -0.265 N 
ATOM      2  CZ  ARG A   1      -7.675 -30.051 -79.033  0.00  0.00    +0.342 C 
ATOM      3  NH2 ARG A   1      -8.670 -30.496 -78.280  0.00  0.00    -0.292 N 
ATOM      4 HH21 ARG A   1      -8.480 -31.175 -77.516  0.00  0.00    +0.255 HD
ATOM      5 HH22 ARG A   1      -9.641 -30.166 -78.453  0.00  0.00    +0.255 HD
ATOM      6  NH1 ARG A   1      -7.926 -29.190 -79.997  0.00  0.00    -0.292 N 
ATOM      7 HH11 ARG A   1      -8.900 -28.865 -80.164  0.00  0.00    +0.255 HD
ATOM      8 HH12 ARG A   1      -7.150 -28.835 -80.592  0.00  0.00    +0.255 HD
ATOM      9  HE  ARG A   1      -5.685 -30.061 -79.447  0.00  0.00    +0.259 HD
ENDROOT
BRANCH   1  10
ATOM     10  CD  ARG A   1      -6.012 -31.419 -77.811  0.00  0.00    +0.174 C 
BRANCH  10  11
ATOM     11  CG  ARG A   1      -4.500 -31.522 -77.704  0.00  0.00    +0.045 C 
BRANCH  11  12
ATOM     12  CB  ARG A   1      -4.035 -32.659 -76.781  0.00  0.00    +0.029 C 
BRANCH  12  13
ATOM     13  CA  ARG A   1      -2.531 -32.627 -76.465  0.00  0.00    +0.133 C 
BRANCH  13  14
ATOM     14  N   ARG A   1      -2.092 -33.856 -75.802  0.00  0.00    -0.239 NA
ATOM     15  H   ARG A   1      -2.796 -34.531 -75.441  0.00  0.00    +0.142 HD
ENDBRANCH  13  14
BRANCH  13  16
ATOM     16  C   ARG A   1      -2.214 -31.398 -75.612  0.00  0.00    +0.224 C 
ATOM     17  O   ARG A   1      -2.411 -31.405 -74.387  0.00  0.00    -0.287 OA
ENDBRANCH  13  16
ENDBRANCH  12  13
ENDBRANCH  11  12
ENDBRANCH  10  11
ENDBRANCH   1  10
TORSDOF 6
REMARK  Name = ../refined-set-2016/4ygf/4ygf_pocket.pdb
REMARK  145 active torsions:
REMARK  status: ('A' for Active; 'I' for Inactive)
REMARK    1  A    between atoms: _1  and  _3
REMARK    2  A    between atoms: _3  and  _4
REMARK    3  A    between atoms: _3  and  _6
REMARK    4  A    between atoms: _6  and  _7
REMARK    5  A    between atoms: _17  and  _19
REMARK    6  A    between atoms: _19  and  _20
REMARK    7  A    between atoms: _19  and  _22
REMARK    8  A    between atoms: _22  and  _23
REMARK    9  A    between atoms: _28  and  _29
REMARK   10  A    between atoms: _31  and  _33
REMARK   11  A    between atoms: _33  and  _34
REMARK   12  A    between atoms: _33  and  _36
REMARK   13  A    between atoms: _36  and  _37
REMARK   14  A    between atoms: _40  and  _41
REMARK   15  A    between atoms: _46  and  _48
REMARK   16  A    between atoms: _48  and  _49
REMARK   17  A    between atoms: _48  and  _51
REMARK   18  A    between atoms: _51  and  _52
REMARK   19  A    between atoms: _55  and  _57
REMARK   20  A    between atoms: _57  and  _58
REMARK   21  A    between atoms: _57  and  _60
REMARK   22  A    between atoms: _60  and  _61
REMARK   23  A    between atoms: _66  and  _68
REMARK   24  A    between atoms: _68  and  _69
REMARK   25  A    between atoms: _68  and  _71
REMARK   26  A    between atoms: _71  and  _72
REMARK   27  A    between atoms: _75  and  _77
REMARK   28  A    between atoms: _77  and  _78
REMARK   29  A    between atoms: _77  and  _80
REMARK   30  A    between atoms: _80  and  _81
REMARK   31  A    between atoms: _81  and  _82
REMARK   32  A    between atoms: _82  and  _83
REMARK   33  A    between atoms: _83  and  _84
REMARK   34  A    between atoms: _88  and  _90
REMARK   35  A    between atoms: _90  and  _91
REMARK   36  A    between atoms: _90  and  _93
REMARK   37  A    between atoms: _93  and  _94
REMARK   38  A    between atoms: _97  and  _99
REMARK   39  A    between atoms: _99  and  _100
REMARK   40  A    between atoms: _99  and  _102
REMARK   41  A    between atoms: _102  and  _103
REMARK   42  A    between atoms: _108  and  _110
REMARK   43  A    between atoms: _110  and  _111
REMARK   44  A    between atoms: _110  and  _113
REMARK   45  A    between atoms: _116  and  _118
REMARK   46  A    between atoms: _129  and  _132
REMARK   47  A    between atoms: _132  and  _133
REMARK   48  A    between atoms: _141  and  _142
REMARK   49  A    between atoms: _150  and  _152
REMARK   50  A    between atoms: _152  and  _153
REMARK   51  A    between atoms: _152  and  _155
REMARK   52  A    between atoms: _155  and  _156
REMARK   53  A    between atoms: _156  and  _157
REMARK   54  A    between atoms: _160  and  _162
REMARK   55  A    between atoms: _162  and  _163
REMARK   56  A    between atoms: _162  and  _165
REMARK   57  A    between atoms: _165  and  _166
REMARK   58  A    between atoms: _172  and  _174
REMARK   59  A    between atoms: _174  and  _175
REMARK   60  A    between atoms: _174  and  _177
REMARK   61  A    between atoms: _177  and  _178
REMARK   62  A    between atoms: _180  and  _182
REMARK   63  A    between atoms: _182  and  _183
REMARK   64  A    between atoms: _186  and  _188
REMARK   65  A    between atoms: _188  and  _189
REMARK   66  A    between atoms: _188  and  _191
REMARK   67  A    between atoms: _191  and  _192
REMARK   68  A    between atoms: _193  and  ZN_401
REMARK   69  A    between atoms: _197  and  _199
REMARK   70  A    between atoms: _199  and  _200
REMARK   71  A    between atoms: _199  and  _202
REMARK   72  A    between atoms: _202  and  _203
REMARK   73  A    between atoms: _209  and  _211
REMARK   74  A    between atoms: _211  and  _212
REMARK   75  A    between atoms: _211  and  _214
REMARK   76  A    between atoms: _217  and  _219
REMARK   77  A    between atoms: _219  and  _220
REMARK   78  A    between atoms: _219  and  _222
REMARK   79  A    between atoms: _222  and  _223
REMARK   80  A    between atoms: _228  and  _230
REMARK   81  A    between atoms: _230  and  _231
REMARK   82  A    between atoms: _230  and  _233
REMARK   83  A    between atoms: _233  and  _234
REMARK   84  A    between atoms: _234  and  _235
REMARK   85  A    between atoms: _235  and  _236
REMARK   86  A    between atoms: _236  and  _237
REMARK   87  A    between atoms: _241  and  _243
REMARK   88  A    between atoms: _243  and  _244
REMARK   89  A    between atoms: _243  and  _246
REMARK   90  A    between atoms: _246  and  _247
REMARK   91  A    between atoms: _250  and  _252
REMARK   92  A    between atoms: _252  and  _253
REMARK   93  A    between atoms: _252  and  _255
REMARK   94  A    between atoms: _255  and  _256
REMARK   95  A    between atoms: _259  and  _261
REMARK   96  A    between atoms: _261  and  _262
REMARK   97  A    between atoms: _261  and  _264
REMARK   98  A    between atoms: _267  and  _269
REMARK   99  A    between atoms: _269  and  _270
REMARK  100  A    between atoms: _269  and  _272
REMARK  101  A    between atoms: _272  and  _273
REMARK  102  A    between atoms: _276  and  _278
REMARK  103  A    between atoms: _278  and  _279
REMARK  104  A    between atoms: _282  and  _284
REMARK  105  A    between atoms: _284  and  _285
REMARK  106  A    between atoms: _287  and  _289
REMARK  107  A    between atoms: _289  and  _290
REMARK  108  A    between atoms: _289  and  _292
REMARK  109  A    between atoms: _292  and  _293
REMARK  110  A    between atoms: _295  and  _297
REMARK  111  A    between atoms: _297  and  _298
REMARK  112  A    between atoms: _297  and  _300
REMARK  113  A    between atoms: _300  and  _301
REMARK  114  A    between atoms: _304  and  _306
REMARK  115  A    between atoms: _306  and  _307
REMARK  116  A    between atoms: _306  and  _309
REMARK  117  A    between atoms: _309  and  _310
REMARK  118  A    between atoms: _313  and  _315
REMARK  119  A    between atoms: _315  and  _316
REMARK  120  A    between atoms: _320  and  _321
REMARK  121  A    between atoms: _327  and  _328
REMARK  122  A    between atoms: _333  and  _335
REMARK  123  A    between atoms: _335  and  _336
REMARK  124  A    between atoms: _335  and  _338
REMARK  125  A    between atoms: _340  and  _342
REMARK  126  A    between atoms: _342  and  _343
REMARK  127  A    between atoms: _342  and  _345
REMARK  128  A    between atoms: _345  and  _346
REMARK  129  A    between atoms: _349  and  _351
REMARK  130  A    between atoms: _351  and  _352
REMARK  131  A    between atoms: _351  and  _354
REMARK  132  A    between atoms: _357  and  _359
REMARK  133  A    between atoms: _359  and  _360
REMARK  134  A    between atoms: _359  and  _362
REMARK  135  A    between atoms: _362  and  _363
REMARK  136  A    between atoms: _373  and  _375
REMARK  137  A    between atoms: _375  and  _376
REMARK  138  A    between atoms: _375  and  _378
REMARK  139  A    between atoms: _378  and  _379
REMARK  140  A    between atoms: _384  and  _386
REMARK  141  A    between atoms: _386  and  _387
REMARK  142  A    between atoms: _386  and  _389
REMARK  143  A    between atoms: _389  and  _390
REMARK  144  A    between atoms: _390  and  _391
REMARK  145  A    between atoms: _391  and  _392
REMARK                            x       y       z     vdW  Elec       q    Type
REMARK                         _______ _______ _______ _____ _____    ______ ____
ROOT
ATOM      1  O   HOH     1      -4.503 -36.528 -77.337  0.00  0.00    +0.000 OA
ENDROOT
TORSDOF 0
REMARK  Name = ../refined-set-2016/4ygf/4ygf_pocket.pdb
REMARK  145 active torsions:
REMARK  status: ('A' for Active; 'I' for Inactive)
REMARK    1  A    between atoms: _1  and  _3
REMARK    2  A    between atoms: _3  and  _4
REMARK    3  A    between atoms: _3  and  _6
REMARK    4  A    between atoms: _6  and  _7
REMARK    5  A    between atoms: _17  and  _19
REMARK    6  A    between atoms: _19  and  _20
REMARK    7  A    between atoms: _19  and  _22
REMARK    8  A    between atoms: _22  and  _23
REMARK    9  A    between atoms: _28  and  _29
REMARK   10  A    between atoms: _31  and  _33
REMARK   11  A    between atoms: _33  and  _34
REMARK   12  A    between atoms: _33  and  _36
REMARK   13  A    between atoms: _36  and  _37
REMARK   14  A    between atoms: _40  and  _41
REMARK   15  A    between atoms: _46  and  _48
REMARK   16  A    between atoms: _48  and  _49
REMARK   17  A    between atoms: _48  and  _51
REMARK   18  A    between atoms: _51  and  _52
REMARK   19  A    between atoms: _55  and  _57
REMARK   20  A    between atoms: _57  and  _58
REMARK   21  A    between atoms: _57  and  _60
REMARK   22  A    between atoms: _60  and  _61
REMARK   23  A    between atoms: _66  and  _68
REMARK   24  A    between atoms: _68  and  _69
REMARK   25  A    between atoms: _68  and  _71
REMARK   26  A    between atoms: _71  and  _72
REMARK   27  A    between atoms: _75  and  _77
REMARK   28  A    between atoms: _77  and  _78
REMARK   29  A    between atoms: _77  and  _80
REMARK   30  A    between atoms: _80  and  _81
REMARK   31  A    between atoms: _81  and  _82
REMARK   32  A    between atoms: _82  and  _83
REMARK   33  A    between atoms: _83  and  _84
REMARK   34  A    between atoms: _88  and  _90
REMARK   35  A    between atoms: _90  and  _91
REMARK   36  A    between atoms: _90  and  _93
REMARK   37  A    between atoms: _93  and  _94
REMARK   38  A    between atoms: _97  and  _99
REMARK   39  A    between atoms: _99  and  _100
REMARK   40  A    between atoms: _99  and  _102
REMARK   41  A    between atoms: _102  and  _103
REMARK   42  A    between atoms: _108  and  _110
REMARK   43  A    between atoms: _110  and  _111
REMARK   44  A    between atoms: _110  and  _113
REMARK   45  A    between atoms: _116  and  _118
REMARK   46  A    between atoms: _129  and  _132
REMARK   47  A    between atoms: _132  and  _133
REMARK   48  A    between atoms: _141  and  _142
REMARK   49  A    between atoms: _150  and  _152
REMARK   50  A    between atoms: _152  and  _153
REMARK   51  A    between atoms: _152  and  _155
REMARK   52  A    between atoms: _155  and  _156
REMARK   53  A    between atoms: _156  and  _157
REMARK   54  A    between atoms: _160  and  _162
REMARK   55  A    between atoms: _162  and  _163
REMARK   56  A    between atoms: _162  and  _165
REMARK   57  A    between atoms: _165  and  _166
REMARK   58  A    between atoms: _172  and  _174
REMARK   59  A    between atoms: _174  and  _175
REMARK   60  A    between atoms: _174  and  _177
REMARK   61  A    between atoms: _177  and  _178
REMARK   62  A    between atoms: _180  and  _182
REMARK   63  A    between atoms: _182  and  _183
REMARK   64  A    between atoms: _186  and  _188
REMARK   65  A    between atoms: _188  and  _189
REMARK   66  A    between atoms: _188  and  _191
REMARK   67  A    between atoms: _191  and  _192
REMARK   68  A    between atoms: _193  and  ZN_401
REMARK   69  A    between atoms: _197  and  _199
REMARK   70  A    between atoms: _199  and  _200
REMARK   71  A    between atoms: _199  and  _202
REMARK   72  A    between atoms: _202  and  _203
REMARK   73  A    between atoms: _209  and  _211
REMARK   74  A    between atoms: _211  and  _212
REMARK   75  A    between atoms: _211  and  _214
REMARK   76  A    between atoms: _217  and  _219
REMARK   77  A    between atoms: _219  and  _220
REMARK   78  A    between atoms: _219  and  _222
REMARK   79  A    between atoms: _222  and  _223
REMARK   80  A    between atoms: _228  and  _230
REMARK   81  A    between atoms: _230  and  _231
REMARK   82  A    between atoms: _230  and  _233
REMARK   83  A    between atoms: _233  and  _234
REMARK   84  A    between atoms: _234  and  _235
REMARK   85  A    between atoms: _235  and  _236
REMARK   86  A    between atoms: _236  and  _237
REMARK   87  A    between atoms: _241  and  _243
REMARK   88  A    between atoms: _243  and  _244
REMARK   89  A    between atoms: _243  and  _246
REMARK   90  A    between atoms: _246  and  _247
REMARK   91  A    between atoms: _250  and  _252
REMARK   92  A    between atoms: _252  and  _253
REMARK   93  A    between atoms: _252  and  _255
REMARK   94  A    between atoms: _255  and  _256
REMARK   95  A    between atoms: _259  and  _261
REMARK   96  A    between atoms: _261  and  _262
REMARK   97  A    between atoms: _261  and  _264
REMARK   98  A    between atoms: _267  and  _269
REMARK   99  A    between atoms: _269  and  _270
REMARK  100  A    between atoms: _269  and  _272
REMARK  101  A    between atoms: _272  and  _273
REMARK  102  A    between atoms: _276  and  _278
REMARK  103  A    between atoms: _278  and  _279
REMARK  104  A    between atoms: _282  and  _284
REMARK  105  A    between atoms: _284  and  _285
REMARK  106  A    between atoms: _287  and  _289
REMARK  107  A    between atoms: _289  and  _290
REMARK  108  A    between atoms: _289  and  _292
REMARK  109  A    between atoms: _292  and  _293
REMARK  110  A    between atoms: _295  and  _297
REMARK  111  A    between atoms: _297  and  _298
REMARK  112  A    between atoms: _297  and  _300
REMARK  113  A    between atoms: _300  and  _301
REMARK  114  A    between atoms: _304  and  _306
REMARK  115  A    between atoms: _306  and  _307
REMARK  116  A    between atoms: _306  and  _309
REMARK  117  A    between atoms: _309  and  _310
REMARK  118  A    between atoms: _313  and  _315
REMARK  119  A    between atoms: _315  and  _316
REMARK  120  A    between atoms: _320  and  _321
REMARK  121  A    between atoms: _327  and  _328
REMARK  122  A    between atoms: _333  and  _335
REMARK  123  A    between atoms: _335  and  _336
REMARK  124  A    between atoms: _335  and  _338
REMARK  125  A    between atoms: _340  and  _342
REMARK  126  A    between atoms: _342  and  _343
REMARK  127  A    between atoms: _342  and  _345
REMARK  128  A    between atoms: _345  and  _346
REMARK  129  A    between atoms: _349  and  _351
REMARK  130  A    between atoms: _351  and  _352
REMARK  131  A    between atoms: _351  and  _354
REMARK  132  A    between atoms: _357  and  _359
REMARK  133  A    between atoms: _359  and  _360
REMARK  134  A    between atoms: _359  and  _362
REMARK  135  A    between atoms: _362  and  _363
REMARK  136  A    between atoms: _373  and  _375
REMARK  137  A    between atoms: _375  and  _376
REMARK  138  A    between atoms: _375  and  _378
REMARK  139  A    between atoms: _378  and  _379
REMARK  140  A    between atoms: _384  and  _386
REMARK  141  A    between atoms: _386  and  _387
REMARK  142  A    between atoms: _386  and  _389
REMARK  143  A    between atoms: _389  and  _390
REMARK  144  A    between atoms: _390  and  _391
REMARK  145  A    between atoms: _391  and  _392
REMARK                            x       y       z     vdW  Elec       q    Type
REMARK                         _______ _______ _______ _____ _____    ______ ____
ROOT
ATOM      1  O   HOH     1     -12.350 -41.137 -82.259  0.00  0.00    +0.000 OA
ENDROOT
TORSDOF 0
REMARK  Name = ../refined-set-2016/4ygf/4ygf_pocket.pdb
REMARK  145 active torsions:
REMARK  status: ('A' for Active; 'I' for Inactive)
REMARK    1  A    between atoms: _1  and  _3
REMARK    2  A    between atoms: _3  and  _4
REMARK    3  A    between atoms: _3  and  _6
REMARK    4  A    between atoms: _6  and  _7
REMARK    5  A    between atoms: _17  and  _19
REMARK    6  A    between atoms: _19  and  _20
REMARK    7  A    between atoms: _19  and  _22
REMARK    8  A    between atoms: _22  and  _23
REMARK    9  A    between atoms: _28  and  _29
REMARK   10  A    between atoms: _31  and  _33
REMARK   11  A    between atoms: _33  and  _34
REMARK   12  A    between atoms: _33  and  _36
REMARK   13  A    between atoms: _36  and  _37
REMARK   14  A    between atoms: _40  and  _41
REMARK   15  A    between atoms: _46  and  _48
REMARK   16  A    between atoms: _48  and  _49
REMARK   17  A    between atoms: _48  and  _51
REMARK   18  A    between atoms: _51  and  _52
REMARK   19  A    between atoms: _55  and  _57
REMARK   20  A    between atoms: _57  and  _58
REMARK   21  A    between atoms: _57  and  _60
REMARK   22  A    between atoms: _60  and  _61
REMARK   23  A    between atoms: _66  and  _68
REMARK   24  A    between atoms: _68  and  _69
REMARK   25  A    between atoms: _68  and  _71
REMARK   26  A    between atoms: _71  and  _72
REMARK   27  A    between atoms: _75  and  _77
REMARK   28  A    between atoms: _77  and  _78
REMARK   29  A    between atoms: _77  and  _80
REMARK   30  A    between atoms: _80  and  _81
REMARK   31  A    between atoms: _81  and  _82
REMARK   32  A    between atoms: _82  and  _83
REMARK   33  A    between atoms: _83  and  _84
REMARK   34  A    between atoms: _88  and  _90
REMARK   35  A    between atoms: _90  and  _91
REMARK   36  A    between atoms: _90  and  _93
REMARK   37  A    between atoms: _93  and  _94
REMARK   38  A    between atoms: _97  and  _99
REMARK   39  A    between atoms: _99  and  _100
REMARK   40  A    between atoms: _99  and  _102
REMARK   41  A    between atoms: _102  and  _103
REMARK   42  A    between atoms: _108  and  _110
REMARK   43  A    between atoms: _110  and  _111
REMARK   44  A    between atoms: _110  and  _113
REMARK   45  A    between atoms: _116  and  _118
REMARK   46  A    between atoms: _129  and  _132
REMARK   47  A    between atoms: _132  and  _133
REMARK   48  A    between atoms: _141  and  _142
REMARK   49  A    between atoms: _150  and  _152
REMARK   50  A    between atoms: _152  and  _153
REMARK   51  A    between atoms: _152  and  _155
REMARK   52  A    between atoms: _155  and  _156
REMARK   53  A    between atoms: _156  and  _157
REMARK   54  A    between atoms: _160  and  _162
REMARK   55  A    between atoms: _162  and  _163
REMARK   56  A    between atoms: _162  and  _165
REMARK   57  A    between atoms: _165  and  _166
REMARK   58  A    between atoms: _172  and  _174
REMARK   59  A    between atoms: _174  and  _175
REMARK   60  A    between atoms: _174  and  _177
REMARK   61  A    between atoms: _177  and  _178
REMARK   62  A    between atoms: _180  and  _182
REMARK   63  A    between atoms: _182  and  _183
REMARK   64  A    between atoms: _186  and  _188
REMARK   65  A    between atoms: _188  and  _189
REMARK   66  A    between atoms: _188  and  _191
REMARK   67  A    between atoms: _191  and  _192
REMARK   68  A    between atoms: _193  and  ZN_401
REMARK   69  A    between atoms: _197  and  _199
REMARK   70  A    between atoms: _199  and  _200
REMARK   71  A    between atoms: _199  and  _202
REMARK   72  A    between atoms: _202  and  _203
REMARK   73  A    between atoms: _209  and  _211
REMARK   74  A    between atoms: _211  and  _212
REMARK   75  A    between atoms: _211  and  _214
REMARK   76  A    between atoms: _217  and  _219
REMARK   77  A    between atoms: _219  and  _220
REMARK   78  A    between atoms: _219  and  _222
REMARK   79  A    between atoms: _222  and  _223
REMARK   80  A    between atoms: _228  and  _230
REMARK   81  A    between atoms: _230  and  _231
REMARK   82  A    between atoms: _230  and  _233
REMARK   83  A    between atoms: _233  and  _234
REMARK   84  A    between atoms: _234  and  _235
REMARK   85  A    between atoms: _235  and  _236
REMARK   86  A    between atoms: _236  and  _237
REMARK   87  A    between atoms: _241  and  _243
REMARK   88  A    between atoms: _243  and  _244
REMARK   89  A    between atoms: _243  and  _246
REMARK   90  A    between atoms: _246  and  _247
REMARK   91  A    between atoms: _250  and  _252
REMARK   92  A    between atoms: _252  and  _253
REMARK   93  A    between atoms: _252  and  _255
REMARK   94  A    between atoms: _255  and  _256
REMARK   95  A    between atoms: _259  and  _261
REMARK   96  A    between atoms: _261  and  _262
REMARK   97  A    between atoms: _261  and  _264
REMARK   98  A    between atoms: _267  and  _269
REMARK   99  A    between atoms: _269  and  _270
REMARK  100  A    between atoms: _269  and  _272
REMARK  101  A    between atoms: _272  and  _273
REMARK  102  A    between atoms: _276  and  _278
REMARK  103  A    between atoms: _278  and  _279
REMARK  104  A    between atoms: _282  and  _284
REMARK  105  A    between atoms: _284  and  _285
REMARK  106  A    between atoms: _287  and  _289
REMARK  107  A    between atoms: _289  and  _290
REMARK  108  A    between atoms: _289  and  _292
REMARK  109  A    between atoms: _292  and  _293
REMARK  110  A    between atoms: _295  and  _297
REMARK  111  A    between atoms: _297  and  _298
REMARK  112  A    between atoms: _297  and  _300
REMARK  113  A    between atoms: _300  and  _301
REMARK  114  A    between atoms: _304  and  _306
REMARK  115  A    between atoms: _306  and  _307
REMARK  116  A    between atoms: _306  and  _309
REMARK  117  A    between atoms: _309  and  _310
REMARK  118  A    between atoms: _313  and  _315
REMARK  119  A    between atoms: _315  and  _316
REMARK  120  A    between atoms: _320  and  _321
REMARK  121  A    between atoms: _327  and  _328
REMARK  122  A    between atoms: _333  and  _335
REMARK  123  A    between atoms: _335  and  _336
REMARK  124  A    between atoms: _335  and  _338
REMARK  125  A    between atoms: _340  and  _342
REMARK  126  A    between atoms: _342  and  _343
REMARK  127  A    between atoms: _342  and  _345
REMARK  128  A    between atoms: _345  and  _346
REMARK  129  A    between atoms: _349  and  _351
REMARK  130  A    between atoms: _351  and  _352
REMARK  131  A    between atoms: _351  and  _354
REMARK  132  A    between atoms: _357  and  _359
REMARK  133  A    between atoms: _359  and  _360
REMARK  134  A    between atoms: _359  and  _362
REMARK  135  A    between atoms: _362  and  _363
REMARK  136  A    between atoms: _373  and  _375
REMARK  137  A    between atoms: _375  and  _376
REMARK  138  A    between atoms: _375  and  _378
REMARK  139  A    between atoms: _378  and  _379
REMARK  140  A    between atoms: _384  and  _386
REMARK  141  A    between atoms: _386  and  _387
REMARK  142  A    between atoms: _386  and  _389
REMARK  143  A    between atoms: _389  and  _390
REMARK  144  A    between atoms: _390  and  _391
REMARK  145  A    between atoms: _391  and  _392
REMARK                            x       y       z     vdW  Elec       q    Type
REMARK                         _______ _______ _______ _____ _____    ______ ____
ROOT
ATOM      1  O   HOH     1      -3.468 -40.707 -78.388  0.00  0.00    +0.000 OA
ENDROOT
TORSDOF 0
REMARK  Name = ../refined-set-2016/4ygf/4ygf_pocket.pdb
REMARK  145 active torsions:
REMARK  status: ('A' for Active; 'I' for Inactive)
REMARK    1  A    between atoms: _1  and  _3
REMARK    2  A    between atoms: _3  and  _4
REMARK    3  A    between atoms: _3  and  _6
REMARK    4  A    between atoms: _6  and  _7
REMARK    5  A    between atoms: _17  and  _19
REMARK    6  A    between atoms: _19  and  _20
REMARK    7  A    between atoms: _19  and  _22
REMARK    8  A    between atoms: _22  and  _23
REMARK    9  A    between atoms: _28  and  _29
REMARK   10  A    between atoms: _31  and  _33
REMARK   11  A    between atoms: _33  and  _34
REMARK   12  A    between atoms: _33  and  _36
REMARK   13  A    between atoms: _36  and  _37
REMARK   14  A    between atoms: _40  and  _41
REMARK   15  A    between atoms: _46  and  _48
REMARK   16  A    between atoms: _48  and  _49
REMARK   17  A    between atoms: _48  and  _51
REMARK   18  A    between atoms: _51  and  _52
REMARK   19  A    between atoms: _55  and  _57
REMARK   20  A    between atoms: _57  and  _58
REMARK   21  A    between atoms: _57  and  _60
REMARK   22  A    between atoms: _60  and  _61
REMARK   23  A    between atoms: _66  and  _68
REMARK   24  A    between atoms: _68  and  _69
REMARK   25  A    between atoms: _68  and  _71
REMARK   26  A    between atoms: _71  and  _72
REMARK   27  A    between atoms: _75  and  _77
REMARK   28  A    between atoms: _77  and  _78
REMARK   29  A    between atoms: _77  and  _80
REMARK   30  A    between atoms: _80  and  _81
REMARK   31  A    between atoms: _81  and  _82
REMARK   32  A    between atoms: _82  and  _83
REMARK   33  A    between atoms: _83  and  _84
REMARK   34  A    between atoms: _88  and  _90
REMARK   35  A    between atoms: _90  and  _91
REMARK   36  A    between atoms: _90  and  _93
REMARK   37  A    between atoms: _93  and  _94
REMARK   38  A    between atoms: _97  and  _99
REMARK   39  A    between atoms: _99  and  _100
REMARK   40  A    between atoms: _99  and  _102
REMARK   41  A    between atoms: _102  and  _103
REMARK   42  A    between atoms: _108  and  _110
REMARK   43  A    between atoms: _110  and  _111
REMARK   44  A    between atoms: _110  and  _113
REMARK   45  A    between atoms: _116  and  _118
REMARK   46  A    between atoms: _129  and  _132
REMARK   47  A    between atoms: _132  and  _133
REMARK   48  A    between atoms: _141  and  _142
REMARK   49  A    between atoms: _150  and  _152
REMARK   50  A    between atoms: _152  and  _153
REMARK   51  A    between atoms: _152  and  _155
REMARK   52  A    between atoms: _155  and  _156
REMARK   53  A    between atoms: _156  and  _157
REMARK   54  A    between atoms: _160  and  _162
REMARK   55  A    between atoms: _162  and  _163
REMARK   56  A    between atoms: _162  and  _165
REMARK   57  A    between atoms: _165  and  _166
REMARK   58  A    between atoms: _172  and  _174
REMARK   59  A    between atoms: _174  and  _175
REMARK   60  A    between atoms: _174  and  _177
REMARK   61  A    between atoms: _177  and  _178
REMARK   62  A    between atoms: _180  and  _182
REMARK   63  A    between atoms: _182  and  _183
REMARK   64  A    between atoms: _186  and  _188
REMARK   65  A    between atoms: _188  and  _189
REMARK   66  A    between atoms: _188  and  _191
REMARK   67  A    between atoms: _191  and  _192
REMARK   68  A    between atoms: _193  and  ZN_401
REMARK   69  A    between atoms: _197  and  _199
REMARK   70  A    between atoms: _199  and  _200
REMARK   71  A    between atoms: _199  and  _202
REMARK   72  A    between atoms: _202  and  _203
REMARK   73  A    between atoms: _209  and  _211
REMARK   74  A    between atoms: _211  and  _212
REMARK   75  A    between atoms: _211  and  _214
REMARK   76  A    between atoms: _217  and  _219
REMARK   77  A    between atoms: _219  and  _220
REMARK   78  A    between atoms: _219  and  _222
REMARK   79  A    between atoms: _222  and  _223
REMARK   80  A    between atoms: _228  and  _230
REMARK   81  A    between atoms: _230  and  _231
REMARK   82  A    between atoms: _230  and  _233
REMARK   83  A    between atoms: _233  and  _234
REMARK   84  A    between atoms: _234  and  _235
REMARK   85  A    between atoms: _235  and  _236
REMARK   86  A    between atoms: _236  and  _237
REMARK   87  A    between atoms: _241  and  _243
REMARK   88  A    between atoms: _243  and  _244
REMARK   89  A    between atoms: _243  and  _246
REMARK   90  A    between atoms: _246  and  _247
REMARK   91  A    between atoms: _250  and  _252
REMARK   92  A    between atoms: _252  and  _253
REMARK   93  A    between atoms: _252  and  _255
REMARK   94  A    between atoms: _255  and  _256
REMARK   95  A    between atoms: _259  and  _261
REMARK   96  A    between atoms: _261  and  _262
REMARK   97  A    between atoms: _261  and  _264
REMARK   98  A    between atoms: _267  and  _269
REMARK   99  A    between atoms: _269  and  _270
REMARK  100  A    between atoms: _269  and  _272
REMARK  101  A    between atoms: _272  and  _273
REMARK  102  A    between atoms: _276  and  _278
REMARK  103  A    between atoms: _278  and  _279
REMARK  104  A    between atoms: _282  and  _284
REMARK  105  A    between atoms: _284  and  _285
REMARK  106  A    between atoms: _287  and  _289
REMARK  107  A    between atoms: _289  and  _290
REMARK  108  A    between atoms: _289  and  _292
REMARK  109  A    between atoms: _292  and  _293
REMARK  110  A    between atoms: _295  and  _297
REMARK  111  A    between atoms: _297  and  _298
REMARK  112  A    between atoms: _297  and  _300
REMARK  113  A    between atoms: _300  and  _301
REMARK  114  A    between atoms: _304  and  _306
REMARK  115  A    between atoms: _306  and  _307
REMARK  116  A    between atoms: _306  and  _309
REMARK  117  A    between atoms: _309  and  _310
REMARK  118  A    between atoms: _313  and  _315
REMARK  119  A    between atoms: _315  and  _316
REMARK  120  A    between atoms: _320  and  _321
REMARK  121  A    between atoms: _327  and  _328
REMARK  122  A    between atoms: _333  and  _335
REMARK  123  A    between atoms: _335  and  _336
REMARK  124  A    between atoms: _335  and  _338
REMARK  125  A    between atoms: _340  and  _342
REMARK  126  A    between atoms: _342  and  _343
REMARK  127  A    between atoms: _342  and  _345
REMARK  128  A    between atoms: _345  and  _346
REMARK  129  A    between atoms: _349  and  _351
REMARK  130  A    between atoms: _351  and  _352
REMARK  131  A    between atoms: _351  and  _354
REMARK  132  A    between atoms: _357  and  _359
REMARK  133  A    between atoms: _359  and  _360
REMARK  134  A    between atoms: _359  and  _362
REMARK  135  A    between atoms: _362  and  _363
REMARK  136  A    between atoms: _373  and  _375
REMARK  137  A    between atoms: _375  and  _376
REMARK  138  A    between atoms: _375  and  _378
REMARK  139  A    between atoms: _378  and  _379
REMARK  140  A    between atoms: _384  and  _386
REMARK  141  A    between atoms: _386  and  _387
REMARK  142  A    between atoms: _386  and  _389
REMARK  143  A    between atoms: _389  and  _390
REMARK  144  A    between atoms: _390  and  _391
REMARK  145  A    between atoms: _391  and  _392
REMARK                            x       y       z     vdW  Elec       q    Type
REMARK                         _______ _______ _______ _____ _____    ______ ____
ROOT
ATOM      1  O   HOH     1     -19.004 -42.400 -83.768  0.00  0.00    +0.000 OA
ENDROOT
TORSDOF 0
REMARK  Name = ../refined-set-2016/4ygf/4ygf_pocket.pdb
REMARK  145 active torsions:
REMARK  status: ('A' for Active; 'I' for Inactive)
REMARK    1  A    between atoms: _1  and  _3
REMARK    2  A    between atoms: _3  and  _4
REMARK    3  A    between atoms: _3  and  _6
REMARK    4  A    between atoms: _6  and  _7
REMARK    5  A    between atoms: _17  and  _19
REMARK    6  A    between atoms: _19  and  _20
REMARK    7  A    between atoms: _19  and  _22
REMARK    8  A    between atoms: _22  and  _23
REMARK    9  A    between atoms: _28  and  _29
REMARK   10  A    between atoms: _31  and  _33
REMARK   11  A    between atoms: _33  and  _34
REMARK   12  A    between atoms: _33  and  _36
REMARK   13  A    between atoms: _36  and  _37
REMARK   14  A    between atoms: _40  and  _41
REMARK   15  A    between atoms: _46  and  _48
REMARK   16  A    between atoms: _48  and  _49
REMARK   17  A    between atoms: _48  and  _51
REMARK   18  A    between atoms: _51  and  _52
REMARK   19  A    between atoms: _55  and  _57
REMARK   20  A    between atoms: _57  and  _58
REMARK   21  A    between atoms: _57  and  _60
REMARK   22  A    between atoms: _60  and  _61
REMARK   23  A    between atoms: _66  and  _68
REMARK   24  A    between atoms: _68  and  _69
REMARK   25  A    between atoms: _68  and  _71
REMARK   26  A    between atoms: _71  and  _72
REMARK   27  A    between atoms: _75  and  _77
REMARK   28  A    between atoms: _77  and  _78
REMARK   29  A    between atoms: _77  and  _80
REMARK   30  A    between atoms: _80  and  _81
REMARK   31  A    between atoms: _81  and  _82
REMARK   32  A    between atoms: _82  and  _83
REMARK   33  A    between atoms: _83  and  _84
REMARK   34  A    between atoms: _88  and  _90
REMARK   35  A    between atoms: _90  and  _91
REMARK   36  A    between atoms: _90  and  _93
REMARK   37  A    between atoms: _93  and  _94
REMARK   38  A    between atoms: _97  and  _99
REMARK   39  A    between atoms: _99  and  _100
REMARK   40  A    between atoms: _99  and  _102
REMARK   41  A    between atoms: _102  and  _103
REMARK   42  A    between atoms: _108  and  _110
REMARK   43  A    between atoms: _110  and  _111
REMARK   44  A    between atoms: _110  and  _113
REMARK   45  A    between atoms: _116  and  _118
REMARK   46  A    between atoms: _129  and  _132
REMARK   47  A    between atoms: _132  and  _133
REMARK   48  A    between atoms: _141  and  _142
REMARK   49  A    between atoms: _150  and  _152
REMARK   50  A    between atoms: _152  and  _153
REMARK   51  A    between atoms: _152  and  _155
REMARK   52  A    between atoms: _155  and  _156
REMARK   53  A    between atoms: _156  and  _157
REMARK   54  A    between atoms: _160  and  _162
REMARK   55  A    between atoms: _162  and  _163
REMARK   56  A    between atoms: _162  and  _165
REMARK   57  A    between atoms: _165  and  _166
REMARK   58  A    between atoms: _172  and  _174
REMARK   59  A    between atoms: _174  and  _175
REMARK   60  A    between atoms: _174  and  _177
REMARK   61  A    between atoms: _177  and  _178
REMARK   62  A    between atoms: _180  and  _182
REMARK   63  A    between atoms: _182  and  _183
REMARK   64  A    between atoms: _186  and  _188
REMARK   65  A    between atoms: _188  and  _189
REMARK   66  A    between atoms: _188  and  _191
REMARK   67  A    between atoms: _191  and  _192
REMARK   68  A    between atoms: _193  and  ZN_401
REMARK   69  A    between atoms: _197  and  _199
REMARK   70  A    between atoms: _199  and  _200
REMARK   71  A    between atoms: _199  and  _202
REMARK   72  A    between atoms: _202  and  _203
REMARK   73  A    between atoms: _209  and  _211
REMARK   74  A    between atoms: _211  and  _212
REMARK   75  A    between atoms: _211  and  _214
REMARK   76  A    between atoms: _217  and  _219
REMARK   77  A    between atoms: _219  and  _220
REMARK   78  A    between atoms: _219  and  _222
REMARK   79  A    between atoms: _222  and  _223
REMARK   80  A    between atoms: _228  and  _230
REMARK   81  A    between atoms: _230  and  _231
REMARK   82  A    between atoms: _230  and  _233
REMARK   83  A    between atoms: _233  and  _234
REMARK   84  A    between atoms: _234  and  _235
REMARK   85  A    between atoms: _235  and  _236
REMARK   86  A    between atoms: _236  and  _237
REMARK   87  A    between atoms: _241  and  _243
REMARK   88  A    between atoms: _243  and  _244
REMARK   89  A    between atoms: _243  and  _246
REMARK   90  A    between atoms: _246  and  _247
REMARK   91  A    between atoms: _250  and  _252
REMARK   92  A    between atoms: _252  and  _253
REMARK   93  A    between atoms: _252  and  _255
REMARK   94  A    between atoms: _255  and  _256
REMARK   95  A    between atoms: _259  and  _261
REMARK   96  A    between atoms: _261  and  _262
REMARK   97  A    between atoms: _261  and  _264
REMARK   98  A    between atoms: _267  and  _269
REMARK   99  A    between atoms: _269  and  _270
REMARK  100  A    between atoms: _269  and  _272
REMARK  101  A    between atoms: _272  and  _273
REMARK  102  A    between atoms: _276  and  _278
REMARK  103  A    between atoms: _278  and  _279
REMARK  104  A    between atoms: _282  and  _284
REMARK  105  A    between atoms: _284  and  _285
REMARK  106  A    between atoms: _287  and  _289
REMARK  107  A    between atoms: _289  and  _290
REMARK  108  A    between atoms: _289  and  _292
REMARK  109  A    between atoms: _292  and  _293
REMARK  110  A    between atoms: _295  and  _297
REMARK  111  A    between atoms: _297  and  _298
REMARK  112  A    between atoms: _297  and  _300
REMARK  113  A    between atoms: _300  and  _301
REMARK  114  A    between atoms: _304  and  _306
REMARK  115  A    between atoms: _306  and  _307
REMARK  116  A    between atoms: _306  and  _309
REMARK  117  A    between atoms: _309  and  _310
REMARK  118  A    between atoms: _313  and  _315
REMARK  119  A    between atoms: _315  and  _316
REMARK  120  A    between atoms: _320  and  _321
REMARK  121  A    between atoms: _327  and  _328
REMARK  122  A    between atoms: _333  and  _335
REMARK  123  A    between atoms: _335  and  _336
REMARK  124  A    between atoms: _335  and  _338
REMARK  125  A    between atoms: _340  and  _342
REMARK  126  A    between atoms: _342  and  _343
REMARK  127  A    between atoms: _342  and  _345
REMARK  128  A    between atoms: _345  and  _346
REMARK  129  A    between atoms: _349  and  _351
REMARK  130  A    between atoms: _351  and  _352
REMARK  131  A    between atoms: _351  and  _354
REMARK  132  A    between atoms: _357  and  _359
REMARK  133  A    between atoms: _359  and  _360
REMARK  134  A    between atoms: _359  and  _362
REMARK  135  A    between atoms: _362  and  _363
REMARK  136  A    between atoms: _373  and  _375
REMARK  137  A    between atoms: _375  and  _376
REMARK  138  A    between atoms: _375  and  _378
REMARK  139  A    between atoms: _378  and  _379
REMARK  140  A    between atoms: _384  and  _386
REMARK  141  A    between atoms: _386  and  _387
REMARK  142  A    between atoms: _386  and  _389
REMARK  143  A    between atoms: _389  and  _390
REMARK  144  A    between atoms: _390  and  _391
REMARK  145  A    between atoms: _391  and  _392
REMARK                            x       y       z     vdW  Elec       q    Type
REMARK                         _______ _______ _______ _____ _____    ______ ____
ROOT
ATOM      1  O   HOH     1     -14.315 -40.535 -83.756  0.00  0.00    +0.000 OA
ENDROOT
TORSDOF 0
REMARK  Name = ../refined-set-2016/4ygf/4ygf_pocket.pdb
REMARK  145 active torsions:
REMARK  status: ('A' for Active; 'I' for Inactive)
REMARK    1  A    between atoms: _1  and  _3
REMARK    2  A    between atoms: _3  and  _4
REMARK    3  A    between atoms: _3  and  _6
REMARK    4  A    between atoms: _6  and  _7
REMARK    5  A    between atoms: _17  and  _19
REMARK    6  A    between atoms: _19  and  _20
REMARK    7  A    between atoms: _19  and  _22
REMARK    8  A    between atoms: _22  and  _23
REMARK    9  A    between atoms: _28  and  _29
REMARK   10  A    between atoms: _31  and  _33
REMARK   11  A    between atoms: _33  and  _34
REMARK   12  A    between atoms: _33  and  _36
REMARK   13  A    between atoms: _36  and  _37
REMARK   14  A    between atoms: _40  and  _41
REMARK   15  A    between atoms: _46  and  _48
REMARK   16  A    between atoms: _48  and  _49
REMARK   17  A    between atoms: _48  and  _51
REMARK   18  A    between atoms: _51  and  _52
REMARK   19  A    between atoms: _55  and  _57
REMARK   20  A    between atoms: _57  and  _58
REMARK   21  A    between atoms: _57  and  _60
REMARK   22  A    between atoms: _60  and  _61
REMARK   23  A    between atoms: _66  and  _68
REMARK   24  A    between atoms: _68  and  _69
REMARK   25  A    between atoms: _68  and  _71
REMARK   26  A    between atoms: _71  and  _72
REMARK   27  A    between atoms: _75  and  _77
REMARK   28  A    between atoms: _77  and  _78
REMARK   29  A    between atoms: _77  and  _80
REMARK   30  A    between atoms: _80  and  _81
REMARK   31  A    between atoms: _81  and  _82
REMARK   32  A    between atoms: _82  and  _83
REMARK   33  A    between atoms: _83  and  _84
REMARK   34  A    between atoms: _88  and  _90
REMARK   35  A    between atoms: _90  and  _91
REMARK   36  A    between atoms: _90  and  _93
REMARK   37  A    between atoms: _93  and  _94
REMARK   38  A    between atoms: _97  and  _99
REMARK   39  A    between atoms: _99  and  _100
REMARK   40  A    between atoms: _99  and  _102
REMARK   41  A    between atoms: _102  and  _103
REMARK   42  A    between atoms: _108  and  _110
REMARK   43  A    between atoms: _110  and  _111
REMARK   44  A    between atoms: _110  and  _113
REMARK   45  A    between atoms: _116  and  _118
REMARK   46  A    between atoms: _129  and  _132
REMARK   47  A    between atoms: _132  and  _133
REMARK   48  A    between atoms: _141  and  _142
REMARK   49  A    between atoms: _150  and  _152
REMARK   50  A    between atoms: _152  and  _153
REMARK   51  A    between atoms: _152  and  _155
REMARK   52  A    between atoms: _155  and  _156
REMARK   53  A    between atoms: _156  and  _157
REMARK   54  A    between atoms: _160  and  _162
REMARK   55  A    between atoms: _162  and  _163
REMARK   56  A    between atoms: _162  and  _165
REMARK   57  A    between atoms: _165  and  _166
REMARK   58  A    between atoms: _172  and  _174
REMARK   59  A    between atoms: _174  and  _175
REMARK   60  A    between atoms: _174  and  _177
REMARK   61  A    between atoms: _177  and  _178
REMARK   62  A    between atoms: _180  and  _182
REMARK   63  A    between atoms: _182  and  _183
REMARK   64  A    between atoms: _186  and  _188
REMARK   65  A    between atoms: _188  and  _189
REMARK   66  A    between atoms: _188  and  _191
REMARK   67  A    between atoms: _191  and  _192
REMARK   68  A    between atoms: _193  and  ZN_401
REMARK   69  A    between atoms: _197  and  _199
REMARK   70  A    between atoms: _199  and  _200
REMARK   71  A    between atoms: _199  and  _202
REMARK   72  A    between atoms: _202  and  _203
REMARK   73  A    between atoms: _209  and  _211
REMARK   74  A    between atoms: _211  and  _212
REMARK   75  A    between atoms: _211  and  _214
REMARK   76  A    between atoms: _217  and  _219
REMARK   77  A    between atoms: _219  and  _220
REMARK   78  A    between atoms: _219  and  _222
REMARK   79  A    between atoms: _222  and  _223
REMARK   80  A    between atoms: _228  and  _230
REMARK   81  A    between atoms: _230  and  _231
REMARK   82  A    between atoms: _230  and  _233
REMARK   83  A    between atoms: _233  and  _234
REMARK   84  A    between atoms: _234  and  _235
REMARK   85  A    between atoms: _235  and  _236
REMARK   86  A    between atoms: _236  and  _237
REMARK   87  A    between atoms: _241  and  _243
REMARK   88  A    between atoms: _243  and  _244
REMARK   89  A    between atoms: _243  and  _246
REMARK   90  A    between atoms: _246  and  _247
REMARK   91  A    between atoms: _250  and  _252
REMARK   92  A    between atoms: _252  and  _253
REMARK   93  A    between atoms: _252  and  _255
REMARK   94  A    between atoms: _255  and  _256
REMARK   95  A    between atoms: _259  and  _261
REMARK   96  A    between atoms: _261  and  _262
REMARK   97  A    between atoms: _261  and  _264
REMARK   98  A    between atoms: _267  and  _269
REMARK   99  A    between atoms: _269  and  _270
REMARK  100  A    between atoms: _269  and  _272
REMARK  101  A    between atoms: _272  and  _273
REMARK  102  A    between atoms: _276  and  _278
REMARK  103  A    between atoms: _278  and  _279
REMARK  104  A    between atoms: _282  and  _284
REMARK  105  A    between atoms: _284  and  _285
REMARK  106  A    between atoms: _287  and  _289
REMARK  107  A    between atoms: _289  and  _290
REMARK  108  A    between atoms: _289  and  _292
REMARK  109  A    between atoms: _292  and  _293
REMARK  110  A    between atoms: _295  and  _297
REMARK  111  A    between atoms: _297  and  _298
REMARK  112  A    between atoms: _297  and  _300
REMARK  113  A    between atoms: _300  and  _301
REMARK  114  A    between atoms: _304  and  _306
REMARK  115  A    between atoms: _306  and  _307
REMARK  116  A    between atoms: _306  and  _309
REMARK  117  A    between atoms: _309  and  _310
REMARK  118  A    between atoms: _313  and  _315
REMARK  119  A    between atoms: _315  and  _316
REMARK  120  A    between atoms: _320  and  _321
REMARK  121  A    between atoms: _327  and  _328
REMARK  122  A    between atoms: _333  and  _335
REMARK  123  A    between atoms: _335  and  _336
REMARK  124  A    between atoms: _335  and  _338
REMARK  125  A    between atoms: _340  and  _342
REMARK  126  A    between atoms: _342  and  _343
REMARK  127  A    between atoms: _342  and  _345
REMARK  128  A    between atoms: _345  and  _346
REMARK  129  A    between atoms: _349  and  _351
REMARK  130  A    between atoms: _351  and  _352
REMARK  131  A    between atoms: _351  and  _354
REMARK  132  A    between atoms: _357  and  _359
REMARK  133  A    between atoms: _359  and  _360
REMARK  134  A    between atoms: _359  and  _362
REMARK  135  A    between atoms: _362  and  _363
REMARK  136  A    between atoms: _373  and  _375
REMARK  137  A    between atoms: _375  and  _376
REMARK  138  A    between atoms: _375  and  _378
REMARK  139  A    between atoms: _378  and  _379
REMARK  140  A    between atoms: _384  and  _386
REMARK  141  A    between atoms: _386  and  _387
REMARK  142  A    between atoms: _386  and  _389
REMARK  143  A    between atoms: _389  and  _390
REMARK  144  A    between atoms: _390  and  _391
REMARK  145  A    between atoms: _391  and  _392
REMARK                            x       y       z     vdW  Elec       q    Type
REMARK                         _______ _______ _______ _____ _____    ______ ____
ROOT
ATOM      1  O   HOH     1     -16.756 -44.720 -84.377  0.00  0.00    +0.000 OA
ENDROOT
TORSDOF 0
