REMARK  Name = ../refined-set-2016/1dmp/1dmp_pocket.pdb
REMARK  210 active torsions:
REMARK  status: ('A' for Active; 'I' for Inactive)
REMARK    1  A    between atoms: _1  and  _3
REMARK    2  A    between atoms: _3  and  _4
REMARK    3  A    between atoms: _3  and  _6
REMARK    4  A    between atoms: _6  and  _7
REMARK    5  A    between atoms: _7  and  _8
REMARK    6  A    between atoms: _8  and  _9
REMARK    7  A    between atoms: _18  and  _20
REMARK    8  A    between atoms: _20  and  _21
REMARK    9  A    between atoms: _20  and  _23
REMARK   10  A    between atoms: _23  and  _24
REMARK   11  A    between atoms: _27  and  _29
REMARK   12  A    between atoms: _29  and  _30
REMARK   13  A    between atoms: _29  and  _32
REMARK   14  A    between atoms: _32  and  _33
REMARK   15  A    between atoms: _36  and  _38
REMARK   16  A    between atoms: _38  and  _39
REMARK   17  A    between atoms: _38  and  _41
REMARK   18  A    between atoms: _41  and  _42
REMARK   19  A    between atoms: _45  and  _47
REMARK   20  A    between atoms: _47  and  _48
REMARK   21  A    between atoms: _47  and  _50
REMARK   22  A    between atoms: _50  and  _51
REMARK   23  A    between atoms: _54  and  _56
REMARK   24  A    between atoms: _56  and  _57
REMARK   25  A    between atoms: _59  and  _61
REMARK   26  A    between atoms: _61  and  _62
REMARK   27  A    between atoms: _65  and  _67
REMARK   28  A    between atoms: _67  and  _68
REMARK   29  A    between atoms: _67  and  _70
REMARK   30  A    between atoms: _70  and  _71
REMARK   31  A    between atoms: _74  and  _76
REMARK   32  A    between atoms: _76  and  _77
REMARK   33  A    between atoms: _76  and  _79
REMARK   34  A    between atoms: _79  and  _80
REMARK   35  A    between atoms: _83  and  _85
REMARK   36  A    between atoms: _85  and  _86
REMARK   37  A    between atoms: _85  and  _88
REMARK   38  A    between atoms: _88  and  _89
REMARK   39  A    between atoms: _92  and  _94
REMARK   40  A    between atoms: _94  and  _95
REMARK   41  A    between atoms: _94  and  _97
REMARK   42  A    between atoms: _100  and  _102
REMARK   43  A    between atoms: _102  and  _103
REMARK   44  A    between atoms: _102  and  _105
REMARK   45  A    between atoms: _105  and  _106
REMARK   46  A    between atoms: _109  and  _111
REMARK   47  A    between atoms: _111  and  _112
REMARK   48  A    between atoms: _111  and  _114
REMARK   49  A    between atoms: _114  and  _115
REMARK   50  A    between atoms: _115  and  _116
REMARK   51  A    between atoms: _116  and  _117
REMARK   52  A    between atoms: _117  and  _118
REMARK   53  A    between atoms: _122  and  _124
REMARK   54  A    between atoms: _124  and  _125
REMARK   55  A    between atoms: _124  and  _127
REMARK   56  A    between atoms: _127  and  _128
REMARK   57  A    between atoms: _128  and  _129
REMARK   58  A    between atoms: _131  and  _133
REMARK   59  A    between atoms: _133  and  _134
REMARK   60  A    between atoms: _133  and  _136
REMARK   61  A    between atoms: _136  and  _137
REMARK   62  A    between atoms: _140  and  _142
REMARK   63  A    between atoms: _142  and  _143
REMARK   64  A    between atoms: _145  and  _147
REMARK   65  A    between atoms: _147  and  _148
REMARK   66  A    between atoms: _150  and  _152
REMARK   67  A    between atoms: _152  and  _153
REMARK   68  A    between atoms: _152  and  _155
REMARK   69  A    between atoms: _155  and  _156
REMARK   70  A    between atoms: _159  and  _161
REMARK   71  A    between atoms: _161  and  _162
REMARK   72  A    between atoms: _164  and  _166
REMARK   73  A    between atoms: _166  and  _167
REMARK   74  A    between atoms: _169  and  _171
REMARK   75  A    between atoms: _171  and  _172
REMARK   76  A    between atoms: _171  and  _174
REMARK   77  A    between atoms: _174  and  _175
REMARK   78  A    between atoms: _178  and  _180
REMARK   79  A    between atoms: _180  and  _181
REMARK   80  A    between atoms: _180  and  _183
REMARK   81  A    between atoms: _183  and  _184
REMARK   82  A    between atoms: _187  and  _189
REMARK   83  A    between atoms: _189  and  _190
REMARK   84  A    between atoms: _189  and  _192
REMARK   85  A    between atoms: _192  and  _193
REMARK   86  A    between atoms: _197  and  _198
REMARK   87  A    between atoms: _203  and  _205
REMARK   88  A    between atoms: _205  and  _206
REMARK   89  A    between atoms: _205  and  _208
REMARK   90  A    between atoms: _211  and  _213
REMARK   91  A    between atoms: _213  and  _214
REMARK   92  A    between atoms: _213  and  _216
REMARK   93  A    between atoms: _216  and  _217
REMARK   94  A    between atoms: _222  and  _224
REMARK   95  A    between atoms: _224  and  _225
REMARK   96  A    between atoms: _224  and  _227
REMARK   97  A    between atoms: _227  and  _228
REMARK   98  A    between atoms: _231  and  _233
REMARK   99  A    between atoms: _233  and  _234
REMARK  100  A    between atoms: _233  and  _236
REMARK  101  A    between atoms: _236  and  _237
REMARK  102  A    between atoms: _240  and  _242
REMARK  103  A    between atoms: _242  and  _243
REMARK  104  A    between atoms: _245  and  _247
REMARK  105  A    between atoms: _247  and  _248
REMARK  106  A    between atoms: _247  and  _250
REMARK  107  A    between atoms: _250  and  _251
REMARK  108  A    between atoms: _251  and  _252
REMARK  109  A    between atoms: _252  and  _253
REMARK  110  A    between atoms: _262  and  _264
REMARK  111  A    between atoms: _264  and  _265
REMARK  112  A    between atoms: _264  and  _267
REMARK  113  A    between atoms: _267  and  _268
REMARK  114  A    between atoms: _268  and  _269
REMARK  115  A    between atoms: _269  and  _270
REMARK  116  A    between atoms: _279  and  _281
REMARK  117  A    between atoms: _281  and  _282
REMARK  118  A    between atoms: _281  and  _284
REMARK  119  A    between atoms: _284  and  _285
REMARK  120  A    between atoms: _288  and  _290
REMARK  121  A    between atoms: _290  and  _291
REMARK  122  A    between atoms: _290  and  _293
REMARK  123  A    between atoms: _293  and  _294
REMARK  124  A    between atoms: _297  and  _299
REMARK  125  A    between atoms: _299  and  _300
REMARK  126  A    between atoms: _299  and  _302
REMARK  127  A    between atoms: _302  and  _303
REMARK  128  A    between atoms: _306  and  _308
REMARK  129  A    between atoms: _308  and  _309
REMARK  130  A    between atoms: _308  and  _311
REMARK  131  A    between atoms: _311  and  _312
REMARK  132  A    between atoms: _315  and  _317
REMARK  133  A    between atoms: _317  and  _318
REMARK  134  A    between atoms: _320  and  _322
REMARK  135  A    between atoms: _322  and  _323
REMARK  136  A    between atoms: _326  and  _328
REMARK  137  A    between atoms: _328  and  _329
REMARK  138  A    between atoms: _328  and  _331
REMARK  139  A    between atoms: _331  and  _332
REMARK  140  A    between atoms: _335  and  _337
REMARK  141  A    between atoms: _337  and  _338
REMARK  142  A    between atoms: _337  and  _340
REMARK  143  A    between atoms: _340  and  _341
REMARK  144  A    between atoms: _344  and  _346
REMARK  145  A    between atoms: _346  and  _347
REMARK  146  A    between atoms: _346  and  _349
REMARK  147  A    between atoms: _349  and  _350
REMARK  148  A    between atoms: _353  and  _355
REMARK  149  A    between atoms: _355  and  _356
REMARK  150  A    between atoms: _355  and  _358
REMARK  151  A    between atoms: _361  and  _363
REMARK  152  A    between atoms: _363  and  _364
REMARK  153  A    between atoms: _363  and  _366
REMARK  154  A    between atoms: _366  and  _367
REMARK  155  A    between atoms: _370  and  _372
REMARK  156  A    between atoms: _372  and  _373
REMARK  157  A    between atoms: _372  and  _375
REMARK  158  A    between atoms: _375  and  _376
REMARK  159  A    between atoms: _379  and  _381
REMARK  160  A    between atoms: _381  and  _382
REMARK  161  A    between atoms: _384  and  _386
REMARK  162  A    between atoms: _386  and  _387
REMARK  163  A    between atoms: _389  and  _391
REMARK  164  A    between atoms: _391  and  _392
REMARK  165  A    between atoms: _391  and  _394
REMARK  166  A    between atoms: _394  and  _395
REMARK  167  A    between atoms: _398  and  _400
REMARK  168  A    between atoms: _400  and  _401
REMARK  169  A    between atoms: _403  and  _405
REMARK  170  A    between atoms: _405  and  _406
REMARK  171  A    between atoms: _408  and  _410
REMARK  172  A    between atoms: _410  and  _411
REMARK  173  A    between atoms: _410  and  _413
REMARK  174  A    between atoms: _413  and  _414
REMARK  175  A    between atoms: _417  and  _419
REMARK  176  A    between atoms: _419  and  _420
REMARK  177  A    between atoms: _419  and  _422
REMARK  178  A    between atoms: _422  and  _423
REMARK  179  A    between atoms: _426  and  _428
REMARK  180  A    between atoms: _428  and  _429
REMARK  181  A    between atoms: _428  and  _431
REMARK  182  A    between atoms: _431  and  _432
REMARK  183  A    between atoms: _436  and  _437
REMARK  184  A    between atoms: _442  and  _444
REMARK  185  A    between atoms: _444  and  _445
REMARK  186  A    between atoms: _444  and  _447
REMARK  187  A    between atoms: _450  and  _452
REMARK  188  A    between atoms: _452  and  _453
REMARK  189  A    between atoms: _452  and  _455
REMARK  190  A    between atoms: _455  and  _456
REMARK  191  A    between atoms: _461  and  _463
REMARK  192  A    between atoms: _463  and  _464
REMARK  193  A    between atoms: _463  and  _466
REMARK  194  A    between atoms: _466  and  _467
REMARK  195  A    between atoms: _470  and  _472
REMARK  196  A    between atoms: _472  and  _473
REMARK  197  A    between atoms: _472  and  _475
REMARK  198  A    between atoms: _475  and  _476
REMARK  199  A    between atoms: _479  and  _481
REMARK  200  A    between atoms: _481  and  _482
REMARK  201  A    between atoms: _484  and  _486
REMARK  202  A    between atoms: _486  and  _487
REMARK  203  A    between atoms: _486  and  _489
REMARK  204  A    between atoms: _489  and  _490
REMARK  205  A    between atoms: _490  and  _491
REMARK  206  A    between atoms: _491  and  _492
REMARK  207  A    between atoms: _501  and  _503
REMARK  208  A    between atoms: _503  and  _504
REMARK  209  A    between atoms: _503  and  _506
REMARK  210  A    between atoms: _506  and  _507
REMARK                            x       y       z     vdW  Elec       q    Type
REMARK                         _______ _______ _______ _____ _____    ______ ____
ROOT
ATOM      1  NE  ARG A   1      -4.443  23.830  22.139  0.00  0.00    -0.265 N 
ATOM      2  CZ  ARG A   1      -3.823  22.743  22.641  0.00  0.00    +0.342 C 
ATOM      3  NH2 ARG A   1      -4.004  22.344  23.899  0.00  0.00    -0.292 N 
ATOM      4 HH21 ARG A   1      -4.640  22.876  24.527  0.00  0.00    +0.255 HD
ATOM      5 HH22 ARG A   1      -3.509  21.500  24.253  0.00  0.00    +0.255 HD
ATOM      6  NH1 ARG A   1      -2.993  22.044  21.845  0.00  0.00    -0.292 N 
ATOM      7 HH11 ARG A   1      -2.505  21.203  22.213  0.00  0.00    +0.255 HD
ATOM      8 HH12 ARG A   1      -2.839  22.345  20.862  0.00  0.00    +0.255 HD
ATOM      9  HE  ARG A   1      -4.333  24.020  21.122  0.00  0.00    +0.259 HD
ENDROOT
BRANCH   1  10
ATOM     10  CD  ARG A   1      -5.261  24.765  22.920  0.00  0.00    +0.174 C 
BRANCH  10  11
ATOM     11  CG  ARG A   1      -4.881  26.205  22.511  0.00  0.00    +0.045 C 
BRANCH  11  12
ATOM     12  CB  ARG A   1      -5.492  27.338  23.341  0.00  0.00    +0.029 C 
BRANCH  12  13
ATOM     13  CA  ARG A   1      -6.745  28.114  22.896  0.00  0.00    +0.133 C 
BRANCH  13  14
ATOM     14  N   ARG A   1      -6.585  28.757  21.575  0.00  0.00    -0.239 NA
ATOM     15  H   ARG A   1      -5.818  28.446  20.945  0.00  0.00    +0.142 HD
ENDBRANCH  13  14
BRANCH  13  16
ATOM     16  C   ARG A   1      -6.826  29.195  23.918  0.00  0.00    +0.224 C 
ATOM     17  O   ARG A   1      -6.016  30.098  23.846  0.00  0.00    -0.287 OA
ENDBRANCH  13  16
ENDBRANCH  12  13
ENDBRANCH  11  12
ENDBRANCH  10  11
ENDBRANCH   1  10
TORSDOF 6
REMARK  Name = ../refined-set-2016/1dmp/1dmp_pocket.pdb
REMARK  210 active torsions:
REMARK  status: ('A' for Active; 'I' for Inactive)
REMARK    1  A    between atoms: _1  and  _3
REMARK    2  A    between atoms: _3  and  _4
REMARK    3  A    between atoms: _3  and  _6
REMARK    4  A    between atoms: _6  and  _7
REMARK    5  A    between atoms: _7  and  _8
REMARK    6  A    between atoms: _8  and  _9
REMARK    7  A    between atoms: _18  and  _20
REMARK    8  A    between atoms: _20  and  _21
REMARK    9  A    between atoms: _20  and  _23
REMARK   10  A    between atoms: _23  and  _24
REMARK   11  A    between atoms: _27  and  _29
REMARK   12  A    between atoms: _29  and  _30
REMARK   13  A    between atoms: _29  and  _32
REMARK   14  A    between atoms: _32  and  _33
REMARK   15  A    between atoms: _36  and  _38
REMARK   16  A    between atoms: _38  and  _39
REMARK   17  A    between atoms: _38  and  _41
REMARK   18  A    between atoms: _41  and  _42
REMARK   19  A    between atoms: _45  and  _47
REMARK   20  A    between atoms: _47  and  _48
REMARK   21  A    between atoms: _47  and  _50
REMARK   22  A    between atoms: _50  and  _51
REMARK   23  A    between atoms: _54  and  _56
REMARK   24  A    between atoms: _56  and  _57
REMARK   25  A    between atoms: _59  and  _61
REMARK   26  A    between atoms: _61  and  _62
REMARK   27  A    between atoms: _65  and  _67
REMARK   28  A    between atoms: _67  and  _68
REMARK   29  A    between atoms: _67  and  _70
REMARK   30  A    between atoms: _70  and  _71
REMARK   31  A    between atoms: _74  and  _76
REMARK   32  A    between atoms: _76  and  _77
REMARK   33  A    between atoms: _76  and  _79
REMARK   34  A    between atoms: _79  and  _80
REMARK   35  A    between atoms: _83  and  _85
REMARK   36  A    between atoms: _85  and  _86
REMARK   37  A    between atoms: _85  and  _88
REMARK   38  A    between atoms: _88  and  _89
REMARK   39  A    between atoms: _92  and  _94
REMARK   40  A    between atoms: _94  and  _95
REMARK   41  A    between atoms: _94  and  _97
REMARK   42  A    between atoms: _100  and  _102
REMARK   43  A    between atoms: _102  and  _103
REMARK   44  A    between atoms: _102  and  _105
REMARK   45  A    between atoms: _105  and  _106
REMARK   46  A    between atoms: _109  and  _111
REMARK   47  A    between atoms: _111  and  _112
REMARK   48  A    between atoms: _111  and  _114
REMARK   49  A    between atoms: _114  and  _115
REMARK   50  A    between atoms: _115  and  _116
REMARK   51  A    between atoms: _116  and  _117
REMARK   52  A    between atoms: _117  and  _118
REMARK   53  A    between atoms: _122  and  _124
REMARK   54  A    between atoms: _124  and  _125
REMARK   55  A    between atoms: _124  and  _127
REMARK   56  A    between atoms: _127  and  _128
REMARK   57  A    between atoms: _128  and  _129
REMARK   58  A    between atoms: _131  and  _133
REMARK   59  A    between atoms: _133  and  _134
REMARK   60  A    between atoms: _133  and  _136
REMARK   61  A    between atoms: _136  and  _137
REMARK   62  A    between atoms: _140  and  _142
REMARK   63  A    between atoms: _142  and  _143
REMARK   64  A    between atoms: _145  and  _147
REMARK   65  A    between atoms: _147  and  _148
REMARK   66  A    between atoms: _150  and  _152
REMARK   67  A    between atoms: _152  and  _153
REMARK   68  A    between atoms: _152  and  _155
REMARK   69  A    between atoms: _155  and  _156
REMARK   70  A    between atoms: _159  and  _161
REMARK   71  A    between atoms: _161  and  _162
REMARK   72  A    between atoms: _164  and  _166
REMARK   73  A    between atoms: _166  and  _167
REMARK   74  A    between atoms: _169  and  _171
REMARK   75  A    between atoms: _171  and  _172
REMARK   76  A    between atoms: _171  and  _174
REMARK   77  A    between atoms: _174  and  _175
REMARK   78  A    between atoms: _178  and  _180
REMARK   79  A    between atoms: _180  and  _181
REMARK   80  A    between atoms: _180  and  _183
REMARK   81  A    between atoms: _183  and  _184
REMARK   82  A    between atoms: _187  and  _189
REMARK   83  A    between atoms: _189  and  _190
REMARK   84  A    between atoms: _189  and  _192
REMARK   85  A    between atoms: _192  and  _193
REMARK   86  A    between atoms: _197  and  _198
REMARK   87  A    between atoms: _203  and  _205
REMARK   88  A    between atoms: _205  and  _206
REMARK   89  A    between atoms: _205  and  _208
REMARK   90  A    between atoms: _211  and  _213
REMARK   91  A    between atoms: _213  and  _214
REMARK   92  A    between atoms: _213  and  _216
REMARK   93  A    between atoms: _216  and  _217
REMARK   94  A    between atoms: _222  and  _224
REMARK   95  A    between atoms: _224  and  _225
REMARK   96  A    between atoms: _224  and  _227
REMARK   97  A    between atoms: _227  and  _228
REMARK   98  A    between atoms: _231  and  _233
REMARK   99  A    between atoms: _233  and  _234
REMARK  100  A    between atoms: _233  and  _236
REMARK  101  A    between atoms: _236  and  _237
REMARK  102  A    between atoms: _240  and  _242
REMARK  103  A    between atoms: _242  and  _243
REMARK  104  A    between atoms: _245  and  _247
REMARK  105  A    between atoms: _247  and  _248
REMARK  106  A    between atoms: _247  and  _250
REMARK  107  A    between atoms: _250  and  _251
REMARK  108  A    between atoms: _251  and  _252
REMARK  109  A    between atoms: _252  and  _253
REMARK  110  A    between atoms: _262  and  _264
REMARK  111  A    between atoms: _264  and  _265
REMARK  112  A    between atoms: _264  and  _267
REMARK  113  A    between atoms: _267  and  _268
REMARK  114  A    between atoms: _268  and  _269
REMARK  115  A    between atoms: _269  and  _270
REMARK  116  A    between atoms: _279  and  _281
REMARK  117  A    between atoms: _281  and  _282
REMARK  118  A    between atoms: _281  and  _284
REMARK  119  A    between atoms: _284  and  _285
REMARK  120  A    between atoms: _288  and  _290
REMARK  121  A    between atoms: _290  and  _291
REMARK  122  A    between atoms: _290  and  _293
REMARK  123  A    between atoms: _293  and  _294
REMARK  124  A    between atoms: _297  and  _299
REMARK  125  A    between atoms: _299  and  _300
REMARK  126  A    between atoms: _299  and  _302
REMARK  127  A    between atoms: _302  and  _303
REMARK  128  A    between atoms: _306  and  _308
REMARK  129  A    between atoms: _308  and  _309
REMARK  130  A    between atoms: _308  and  _311
REMARK  131  A    between atoms: _311  and  _312
REMARK  132  A    between atoms: _315  and  _317
REMARK  133  A    between atoms: _317  and  _318
REMARK  134  A    between atoms: _320  and  _322
REMARK  135  A    between atoms: _322  and  _323
REMARK  136  A    between atoms: _326  and  _328
REMARK  137  A    between atoms: _328  and  _329
REMARK  138  A    between atoms: _328  and  _331
REMARK  139  A    between atoms: _331  and  _332
REMARK  140  A    between atoms: _335  and  _337
REMARK  141  A    between atoms: _337  and  _338
REMARK  142  A    between atoms: _337  and  _340
REMARK  143  A    between atoms: _340  and  _341
REMARK  144  A    between atoms: _344  and  _346
REMARK  145  A    between atoms: _346  and  _347
REMARK  146  A    between atoms: _346  and  _349
REMARK  147  A    between atoms: _349  and  _350
REMARK  148  A    between atoms: _353  and  _355
REMARK  149  A    between atoms: _355  and  _356
REMARK  150  A    between atoms: _355  and  _358
REMARK  151  A    between atoms: _361  and  _363
REMARK  152  A    between atoms: _363  and  _364
REMARK  153  A    between atoms: _363  and  _366
REMARK  154  A    between atoms: _366  and  _367
REMARK  155  A    between atoms: _370  and  _372
REMARK  156  A    between atoms: _372  and  _373
REMARK  157  A    between atoms: _372  and  _375
REMARK  158  A    between atoms: _375  and  _376
REMARK  159  A    between atoms: _379  and  _381
REMARK  160  A    between atoms: _381  and  _382
REMARK  161  A    between atoms: _384  and  _386
REMARK  162  A    between atoms: _386  and  _387
REMARK  163  A    between atoms: _389  and  _391
REMARK  164  A    between atoms: _391  and  _392
REMARK  165  A    between atoms: _391  and  _394
REMARK  166  A    between atoms: _394  and  _395
REMARK  167  A    between atoms: _398  and  _400
REMARK  168  A    between atoms: _400  and  _401
REMARK  169  A    between atoms: _403  and  _405
REMARK  170  A    between atoms: _405  and  _406
REMARK  171  A    between atoms: _408  and  _410
REMARK  172  A    between atoms: _410  and  _411
REMARK  173  A    between atoms: _410  and  _413
REMARK  174  A    between atoms: _413  and  _414
REMARK  175  A    between atoms: _417  and  _419
REMARK  176  A    between atoms: _419  and  _420
REMARK  177  A    between atoms: _419  and  _422
REMARK  178  A    between atoms: _422  and  _423
REMARK  179  A    between atoms: _426  and  _428
REMARK  180  A    between atoms: _428  and  _429
REMARK  181  A    between atoms: _428  and  _431
REMARK  182  A    between atoms: _431  and  _432
REMARK  183  A    between atoms: _436  and  _437
REMARK  184  A    between atoms: _442  and  _444
REMARK  185  A    between atoms: _444  and  _445
REMARK  186  A    between atoms: _444  and  _447
REMARK  187  A    between atoms: _450  and  _452
REMARK  188  A    between atoms: _452  and  _453
REMARK  189  A    between atoms: _452  and  _455
REMARK  190  A    between atoms: _455  and  _456
REMARK  191  A    between atoms: _461  and  _463
REMARK  192  A    between atoms: _463  and  _464
REMARK  193  A    between atoms: _463  and  _466
REMARK  194  A    between atoms: _466  and  _467
REMARK  195  A    between atoms: _470  and  _472
REMARK  196  A    between atoms: _472  and  _473
REMARK  197  A    between atoms: _472  and  _475
REMARK  198  A    between atoms: _475  and  _476
REMARK  199  A    between atoms: _479  and  _481
REMARK  200  A    between atoms: _481  and  _482
REMARK  201  A    between atoms: _484  and  _486
REMARK  202  A    between atoms: _486  and  _487
REMARK  203  A    between atoms: _486  and  _489
REMARK  204  A    between atoms: _489  and  _490
REMARK  205  A    between atoms: _490  and  _491
REMARK  206  A    between atoms: _491  and  _492
REMARK  207  A    between atoms: _501  and  _503
REMARK  208  A    between atoms: _503  and  _504
REMARK  209  A    between atoms: _503  and  _506
REMARK  210  A    between atoms: _506  and  _507
REMARK                            x       y       z     vdW  Elec       q    Type
REMARK                         _______ _______ _______ _____ _____    ______ ____
ROOT
ATOM      1  C   ALA A   6     -13.186  19.503  33.970  0.00  0.00    +0.241 C 
ATOM      2  N   ASP A   7     -13.357  18.405  34.674  0.00  0.00    -0.297 N 
ATOM      3  H   ASP A   7     -13.039  17.462  34.372  0.00  0.00    +0.150 HD
ATOM      4  O   ALA A   6     -13.593  20.603  34.308  0.00  0.00    -0.273 OA
ENDROOT
BRANCH   1   5
ATOM      5  CA  ALA A   6     -12.527  19.287  32.677  0.00  0.00    +0.149 C 
ATOM      6  CB  ALA A   6     -11.140  19.916  32.741  0.00  0.00    +0.031 C 
BRANCH   5   8
ATOM      7  C   GLY A   5     -14.217  19.198  30.961  0.00  0.00    +0.243 C 
ATOM      8  N   ALA A   6     -13.436  19.948  31.730  0.00  0.00    -0.297 N 
ATOM      9  H   ALA A   6     -13.467  20.985  31.663  0.00  0.00    +0.150 HD
ATOM     10  O   GLY A   5     -14.295  17.998  31.125  0.00  0.00    -0.273 OA
BRANCH   7  11
ATOM     11  CA  GLY A   5     -14.918  19.912  29.842  0.00  0.00    +0.176 C 
BRANCH  11  14
ATOM     12  C   THR A   4     -15.398  22.117  30.452  0.00  0.00    +0.243 C 
ATOM     13  O   THR A   4     -16.415  21.684  30.973  0.00  0.00    -0.273 OA
ATOM     14  N   GLY A   5     -14.584  21.322  29.789  0.00  0.00    -0.295 N 
ATOM     15  H   GLY A   5     -13.760  21.680  29.265  0.00  0.00    +0.150 HD
BRANCH  12  16
ATOM     16  CA  THR A   4     -14.995  23.590  30.493  0.00  0.00    +0.176 C 
BRANCH  16  19
ATOM     17  C   ASP A   3     -12.575  23.791  30.819  0.00  0.00    +0.241 C 
ATOM     18  O   ASP A   3     -12.647  23.335  31.940  0.00  0.00    -0.273 OA
ATOM     19  N   THR A   4     -13.645  23.938  30.042  0.00  0.00    -0.295 N 
ATOM     20  H   THR A   4     -13.519  24.313  29.080  0.00  0.00    +0.150 HD
BRANCH  17  21
ATOM     21  CA  ASP A   3     -11.230  24.139  30.184  0.00  0.00    +0.160 C 
BRANCH  21  23
ATOM     22  C   LEU A   2     -10.262  26.316  29.975  0.00  0.00    +0.241 C 
ATOM     23  N   ASP A   3     -10.605  25.315  30.752  0.00  0.00    -0.297 N 
ATOM     24  H   ASP A   3     -10.428  25.367  31.775  0.00  0.00    +0.150 HD
ATOM     25  O   LEU A   2     -10.610  26.389  28.829  0.00  0.00    -0.273 OA
BRANCH  22  26
ATOM     26  CA  LEU A   2      -9.380  27.366  30.537  0.00  0.00    +0.149 C 
BRANCH  26  29
ATOM     27  C   LEU A   1      -7.235  26.508  30.296  0.00  0.00    +0.238 C 
ATOM     28  O   LEU A   1      -7.439  25.878  31.324  0.00  0.00    -0.274 OA
ATOM     29  N   LEU A   2      -8.153  27.322  29.803  0.00  0.00    -0.297 N 
ATOM     30  H   LEU A   2      -7.995  27.888  28.945  0.00  0.00    +0.150 HD
BRANCH  27  31
ATOM     31  CA  LEU A   1      -5.950  26.329  29.504  0.00  0.00    +0.145 C 
BRANCH  31  32
ATOM     32  N   LEU A   1      -4.838  26.312  30.445  0.00  0.00    -0.238 NA
ATOM     33  H   LEU A   1      -4.494  25.389  30.778  0.00  0.00    +0.142 HD
ENDBRANCH  31  32
BRANCH  31  34
ATOM     34  CB  LEU A   1      -6.104  24.923  28.979  0.00  0.00    +0.026 C 
BRANCH  34  35
ATOM     35  CG  LEU A   1      -5.949  24.463  27.570  0.00  0.00    +0.002 C 
ATOM     36  CD2 LEU A   1      -6.275  22.984  27.669  0.00  0.00    +0.000 C 
ATOM     37  CD1 LEU A   1      -6.930  25.067  26.607  0.00  0.00    +0.000 C 
ENDBRANCH  34  35
ENDBRANCH  31  34
ENDBRANCH  27  31
ENDBRANCH  26  29
BRANCH  26  38
ATOM     38  CB  LEU A   2      -9.995  28.735  30.338  0.00  0.00    +0.029 C 
BRANCH  38  39
ATOM     39  CG  LEU A   2      -9.116  29.845  30.834  0.00  0.00    +0.002 C 
ATOM     40  CD2 LEU A   2      -9.140  30.003  32.369  0.00  0.00    +0.000 C 
ATOM     41  CD1 LEU A   2      -9.566  31.115  30.153  0.00  0.00    +0.000 C 
ENDBRANCH  38  39
ENDBRANCH  26  38
ENDBRANCH  22  26
ENDBRANCH  21  23
BRANCH  21  42
ATOM     42  CB  ASP A   3     -10.212  23.026  30.429  0.00  0.00    +0.143 C 
BRANCH  42  43
ATOM     43  CG  ASP A   3     -10.463  21.770  29.613  0.00  0.00    +0.367 C 
ATOM     44  OD2 ASP A   3      -9.524  21.037  29.345  0.00  0.00    -0.246 OA
ATOM     45  OD1 ASP A   3     -11.601  21.523  29.243  0.00  0.00    -0.246 OA
ENDBRANCH  42  43
ENDBRANCH  21  42
ENDBRANCH  17  21
ENDBRANCH  16  19
BRANCH  16  46
ATOM     46  CB  THR A   4     -15.995  24.413  29.678  0.00  0.00    +0.137 C 
ATOM     47  CG2 THR A   4     -15.806  25.925  29.859  0.00  0.00    +0.034 C 
BRANCH  46  48
ATOM     48  OG1 THR A   4     -15.884  24.140  28.271  0.00  0.00    -0.382 OA
ATOM     49  HG1 THR A   4     -16.062  23.180  28.107  0.00  0.00    +0.210 HD
ENDBRANCH  46  48
ENDBRANCH  16  46
ENDBRANCH  12  16
ENDBRANCH  11  14
ENDBRANCH   7  11
ENDBRANCH   5   8
ENDBRANCH   1   5
BRANCH   2  50
ATOM     50  CA  ASP A   7     -14.050  18.674  35.935  0.00  0.00    +0.160 C 
BRANCH  50  51
ATOM     51  C   ASP A   7     -13.123  19.170  36.998  0.00  0.00    +0.241 C 
ATOM     52  O   ASP A   7     -13.592  19.773  37.939  0.00  0.00    -0.273 OA
ATOM     53  N   ASP A   8     -11.825  18.844  36.793  0.00  0.00    -0.297 N 
ATOM     54  H   ASP A   8     -11.589  18.487  35.845  0.00  0.00    +0.150 HD
BRANCH  53  55
ATOM     55  CA  ASP A   8     -10.719  18.931  37.735  0.00  0.00    +0.160 C 
BRANCH  55  56
ATOM     56  C   ASP A   8      -9.702  19.808  37.085  0.00  0.00    +0.241 C 
ATOM     57  N   THR A   9      -9.007  20.617  37.874  0.00  0.00    -0.295 N 
ATOM     58  H   THR A   9      -9.344  20.755  38.848  0.00  0.00    +0.150 HD
ATOM     59  O   ASP A   8      -9.588  19.746  35.888  0.00  0.00    -0.273 OA
BRANCH  57  60
ATOM     60  CA  THR A   9      -7.795  21.329  37.460  0.00  0.00    +0.176 C 
BRANCH  60  61
ATOM     61  C   THR A   9      -6.645  20.308  37.508  0.00  0.00    +0.243 C 
ATOM     62  O   THR A   9      -6.532  19.586  38.499  0.00  0.00    -0.273 OA
ATOM     63  N   VAL A  10      -5.824  20.266  36.456  0.00  0.00    -0.297 N 
ATOM     64  H   VAL A  10      -6.025  20.848  35.618  0.00  0.00    +0.150 HD
BRANCH  63  65
ATOM     65  CA  VAL A  10      -4.642  19.403  36.480  0.00  0.00    +0.149 C 
BRANCH  65  66
ATOM     66  C   VAL A  10      -3.445  20.237  36.060  0.00  0.00    +0.241 C 
ATOM     67  N   LEU A  11      -2.402  20.212  36.869  0.00  0.00    -0.298 N 
ATOM     68  H   LEU A  11      -2.445  19.599  37.708  0.00  0.00    +0.150 HD
ATOM     69  O   VAL A  10      -3.489  20.903  35.052  0.00  0.00    -0.273 OA
BRANCH  67  70
ATOM     70  CA  LEU A  11      -1.202  20.991  36.651  0.00  0.00    +0.137 C 
BRANCH  70  71
ATOM     71  C   LEU A  11      -0.137  19.989  36.424  0.00  0.00    +0.227 C 
ATOM     72  O   LEU A  11      -0.058  19.006  37.120  0.00  0.00    -0.286 OA
ENDBRANCH  70  71
BRANCH  70  73
ATOM     73  CB  LEU A  11      -0.820  21.654  37.970  0.00  0.00    +0.028 C 
BRANCH  73  74
ATOM     74  CG  LEU A  11      -1.398  22.994  38.319  0.00  0.00    +0.002 C 
ATOM     75  CD2 LEU A  11      -0.972  23.382  39.716  0.00  0.00    +0.000 C 
ATOM     76  CD1 LEU A  11      -2.890  22.991  38.163  0.00  0.00    +0.000 C 
ENDBRANCH  73  74
ENDBRANCH  70  73
ENDBRANCH  67  70
ENDBRANCH  65  66
BRANCH  65  77
ATOM     77  CB  VAL A  10      -4.669  18.210  35.504  0.00  0.00    +0.027 C 
ATOM     78  CG2 VAL A  10      -3.723  17.140  36.059  0.00  0.00    +0.002 C 
ATOM     79  CG1 VAL A  10      -6.005  17.522  35.375  0.00  0.00    +0.002 C 
ENDBRANCH  65  77
ENDBRANCH  63  65
ENDBRANCH  60  61
BRANCH  60  80
ATOM     80  CB  THR A   9      -7.580  22.426  38.547  0.00  0.00    +0.137 C 
ATOM     81  CG2 THR A   9      -6.337  23.252  38.363  0.00  0.00    +0.034 C 
BRANCH  80  82
ATOM     82  OG1 THR A   9      -8.663  23.330  38.555  0.00  0.00    -0.382 OA
ATOM     83  HG1 THR A   9      -9.500  22.839  38.753  0.00  0.00    +0.210 HD
ENDBRANCH  80  82
ENDBRANCH  60  80
ENDBRANCH  57  60
ENDBRANCH  55  56
BRANCH  55  84
ATOM     84  CB  ASP A   8     -10.014  17.606  37.847  0.00  0.00    +0.143 C 
BRANCH  84  85
ATOM     85  CG  ASP A   8     -10.929  16.560  38.367  0.00  0.00    +0.367 C 
ATOM     86  OD2 ASP A   8     -11.285  16.689  39.540  0.00  0.00    -0.246 OA
ATOM     87  OD1 ASP A   8     -11.264  15.618  37.629  0.00  0.00    -0.246 OA
ENDBRANCH  84  85
ENDBRANCH  55  84
ENDBRANCH  53  55
ENDBRANCH  50  51
BRANCH  50  88
ATOM     88  CB  ASP A   7     -14.824  17.463  36.509  0.00  0.00    +0.143 C 
BRANCH  88  89
ATOM     89  CG  ASP A   7     -15.773  16.783  35.536  0.00  0.00    +0.367 C 
ATOM     90  OD2 ASP A   7     -15.768  15.571  35.561  0.00  0.00    -0.246 OA
ATOM     91  OD1 ASP A   7     -16.503  17.395  34.773  0.00  0.00    -0.246 OA
ENDBRANCH  88  89
ENDBRANCH  50  88
ENDBRANCH   2  50
TORSDOF 39
REMARK  Name = ../refined-set-2016/1dmp/1dmp_pocket.pdb
REMARK  210 active torsions:
REMARK  status: ('A' for Active; 'I' for Inactive)
REMARK    1  A    between atoms: _1  and  _3
REMARK    2  A    between atoms: _3  and  _4
REMARK    3  A    between atoms: _3  and  _6
REMARK    4  A    between atoms: _6  and  _7
REMARK    5  A    between atoms: _7  and  _8
REMARK    6  A    between atoms: _8  and  _9
REMARK    7  A    between atoms: _18  and  _20
REMARK    8  A    between atoms: _20  and  _21
REMARK    9  A    between atoms: _20  and  _23
REMARK   10  A    between atoms: _23  and  _24
REMARK   11  A    between atoms: _27  and  _29
REMARK   12  A    between atoms: _29  and  _30
REMARK   13  A    between atoms: _29  and  _32
REMARK   14  A    between atoms: _32  and  _33
REMARK   15  A    between atoms: _36  and  _38
REMARK   16  A    between atoms: _38  and  _39
REMARK   17  A    between atoms: _38  and  _41
REMARK   18  A    between atoms: _41  and  _42
REMARK   19  A    between atoms: _45  and  _47
REMARK   20  A    between atoms: _47  and  _48
REMARK   21  A    between atoms: _47  and  _50
REMARK   22  A    between atoms: _50  and  _51
REMARK   23  A    between atoms: _54  and  _56
REMARK   24  A    between atoms: _56  and  _57
REMARK   25  A    between atoms: _59  and  _61
REMARK   26  A    between atoms: _61  and  _62
REMARK   27  A    between atoms: _65  and  _67
REMARK   28  A    between atoms: _67  and  _68
REMARK   29  A    between atoms: _67  and  _70
REMARK   30  A    between atoms: _70  and  _71
REMARK   31  A    between atoms: _74  and  _76
REMARK   32  A    between atoms: _76  and  _77
REMARK   33  A    between atoms: _76  and  _79
REMARK   34  A    between atoms: _79  and  _80
REMARK   35  A    between atoms: _83  and  _85
REMARK   36  A    between atoms: _85  and  _86
REMARK   37  A    between atoms: _85  and  _88
REMARK   38  A    between atoms: _88  and  _89
REMARK   39  A    between atoms: _92  and  _94
REMARK   40  A    between atoms: _94  and  _95
REMARK   41  A    between atoms: _94  and  _97
REMARK   42  A    between atoms: _100  and  _102
REMARK   43  A    between atoms: _102  and  _103
REMARK   44  A    between atoms: _102  and  _105
REMARK   45  A    between atoms: _105  and  _106
REMARK   46  A    between atoms: _109  and  _111
REMARK   47  A    between atoms: _111  and  _112
REMARK   48  A    between atoms: _111  and  _114
REMARK   49  A    between atoms: _114  and  _115
REMARK   50  A    between atoms: _115  and  _116
REMARK   51  A    between atoms: _116  and  _117
REMARK   52  A    between atoms: _117  and  _118
REMARK   53  A    between atoms: _122  and  _124
REMARK   54  A    between atoms: _124  and  _125
REMARK   55  A    between atoms: _124  and  _127
REMARK   56  A    between atoms: _127  and  _128
REMARK   57  A    between atoms: _128  and  _129
REMARK   58  A    between atoms: _131  and  _133
REMARK   59  A    between atoms: _133  and  _134
REMARK   60  A    between atoms: _133  and  _136
REMARK   61  A    between atoms: _136  and  _137
REMARK   62  A    between atoms: _140  and  _142
REMARK   63  A    between atoms: _142  and  _143
REMARK   64  A    between atoms: _145  and  _147
REMARK   65  A    between atoms: _147  and  _148
REMARK   66  A    between atoms: _150  and  _152
REMARK   67  A    between atoms: _152  and  _153
REMARK   68  A    between atoms: _152  and  _155
REMARK   69  A    between atoms: _155  and  _156
REMARK   70  A    between atoms: _159  and  _161
REMARK   71  A    between atoms: _161  and  _162
REMARK   72  A    between atoms: _164  and  _166
REMARK   73  A    between atoms: _166  and  _167
REMARK   74  A    between atoms: _169  and  _171
REMARK   75  A    between atoms: _171  and  _172
REMARK   76  A    between atoms: _171  and  _174
REMARK   77  A    between atoms: _174  and  _175
REMARK   78  A    between atoms: _178  and  _180
REMARK   79  A    between atoms: _180  and  _181
REMARK   80  A    between atoms: _180  and  _183
REMARK   81  A    between atoms: _183  and  _184
REMARK   82  A    between atoms: _187  and  _189
REMARK   83  A    between atoms: _189  and  _190
REMARK   84  A    between atoms: _189  and  _192
REMARK   85  A    between atoms: _192  and  _193
REMARK   86  A    between atoms: _197  and  _198
REMARK   87  A    between atoms: _203  and  _205
REMARK   88  A    between atoms: _205  and  _206
REMARK   89  A    between atoms: _205  and  _208
REMARK   90  A    between atoms: _211  and  _213
REMARK   91  A    between atoms: _213  and  _214
REMARK   92  A    between atoms: _213  and  _216
REMARK   93  A    between atoms: _216  and  _217
REMARK   94  A    between atoms: _222  and  _224
REMARK   95  A    between atoms: _224  and  _225
REMARK   96  A    between atoms: _224  and  _227
REMARK   97  A    between atoms: _227  and  _228
REMARK   98  A    between atoms: _231  and  _233
REMARK   99  A    between atoms: _233  and  _234
REMARK  100  A    between atoms: _233  and  _236
REMARK  101  A    between atoms: _236  and  _237
REMARK  102  A    between atoms: _240  and  _242
REMARK  103  A    between atoms: _242  and  _243
REMARK  104  A    between atoms: _245  and  _247
REMARK  105  A    between atoms: _247  and  _248
REMARK  106  A    between atoms: _247  and  _250
REMARK  107  A    between atoms: _250  and  _251
REMARK  108  A    between atoms: _251  and  _252
REMARK  109  A    between atoms: _252  and  _253
REMARK  110  A    between atoms: _262  and  _264
REMARK  111  A    between atoms: _264  and  _265
REMARK  112  A    between atoms: _264  and  _267
REMARK  113  A    between atoms: _267  and  _268
REMARK  114  A    between atoms: _268  and  _269
REMARK  115  A    between atoms: _269  and  _270
REMARK  116  A    between atoms: _279  and  _281
REMARK  117  A    between atoms: _281  and  _282
REMARK  118  A    between atoms: _281  and  _284
REMARK  119  A    between atoms: _284  and  _285
REMARK  120  A    between atoms: _288  and  _290
REMARK  121  A    between atoms: _290  and  _291
REMARK  122  A    between atoms: _290  and  _293
REMARK  123  A    between atoms: _293  and  _294
REMARK  124  A    between atoms: _297  and  _299
REMARK  125  A    between atoms: _299  and  _300
REMARK  126  A    between atoms: _299  and  _302
REMARK  127  A    between atoms: _302  and  _303
REMARK  128  A    between atoms: _306  and  _308
REMARK  129  A    between atoms: _308  and  _309
REMARK  130  A    between atoms: _308  and  _311
REMARK  131  A    between atoms: _311  and  _312
REMARK  132  A    between atoms: _315  and  _317
REMARK  133  A    between atoms: _317  and  _318
REMARK  134  A    between atoms: _320  and  _322
REMARK  135  A    between atoms: _322  and  _323
REMARK  136  A    between atoms: _326  and  _328
REMARK  137  A    between atoms: _328  and  _329
REMARK  138  A    between atoms: _328  and  _331
REMARK  139  A    between atoms: _331  and  _332
REMARK  140  A    between atoms: _335  and  _337
REMARK  141  A    between atoms: _337  and  _338
REMARK  142  A    between atoms: _337  and  _340
REMARK  143  A    between atoms: _340  and  _341
REMARK  144  A    between atoms: _344  and  _346
REMARK  145  A    between atoms: _346  and  _347
REMARK  146  A    between atoms: _346  and  _349
REMARK  147  A    between atoms: _349  and  _350
REMARK  148  A    between atoms: _353  and  _355
REMARK  149  A    between atoms: _355  and  _356
REMARK  150  A    between atoms: _355  and  _358
REMARK  151  A    between atoms: _361  and  _363
REMARK  152  A    between atoms: _363  and  _364
REMARK  153  A    between atoms: _363  and  _366
REMARK  154  A    between atoms: _366  and  _367
REMARK  155  A    between atoms: _370  and  _372
REMARK  156  A    between atoms: _372  and  _373
REMARK  157  A    between atoms: _372  and  _375
REMARK  158  A    between atoms: _375  and  _376
REMARK  159  A    between atoms: _379  and  _381
REMARK  160  A    between atoms: _381  and  _382
REMARK  161  A    between atoms: _384  and  _386
REMARK  162  A    between atoms: _386  and  _387
REMARK  163  A    between atoms: _389  and  _391
REMARK  164  A    between atoms: _391  and  _392
REMARK  165  A    between atoms: _391  and  _394
REMARK  166  A    between atoms: _394  and  _395
REMARK  167  A    between atoms: _398  and  _400
REMARK  168  A    between atoms: _400  and  _401
REMARK  169  A    between atoms: _403  and  _405
REMARK  170  A    between atoms: _405  and  _406
REMARK  171  A    between atoms: _408  and  _410
REMARK  172  A    between atoms: _410  and  _411
REMARK  173  A    between atoms: _410  and  _413
REMARK  174  A    between atoms: _413  and  _414
REMARK  175  A    between atoms: _417  and  _419
REMARK  176  A    between atoms: _419  and  _420
REMARK  177  A    between atoms: _419  and  _422
REMARK  178  A    between atoms: _422  and  _423
REMARK  179  A    between atoms: _426  and  _428
REMARK  180  A    between atoms: _428  and  _429
REMARK  181  A    between atoms: _428  and  _431
REMARK  182  A    between atoms: _431  and  _432
REMARK  183  A    between atoms: _436  and  _437
REMARK  184  A    between atoms: _442  and  _444
REMARK  185  A    between atoms: _444  and  _445
REMARK  186  A    between atoms: _444  and  _447
REMARK  187  A    between atoms: _450  and  _452
REMARK  188  A    between atoms: _452  and  _453
REMARK  189  A    between atoms: _452  and  _455
REMARK  190  A    between atoms: _455  and  _456
REMARK  191  A    between atoms: _461  and  _463
REMARK  192  A    between atoms: _463  and  _464
REMARK  193  A    between atoms: _463  and  _466
REMARK  194  A    between atoms: _466  and  _467
REMARK  195  A    between atoms: _470  and  _472
REMARK  196  A    between atoms: _472  and  _473
REMARK  197  A    between atoms: _472  and  _475
REMARK  198  A    between atoms: _475  and  _476
REMARK  199  A    between atoms: _479  and  _481
REMARK  200  A    between atoms: _481  and  _482
REMARK  201  A    between atoms: _484  and  _486
REMARK  202  A    between atoms: _486  and  _487
REMARK  203  A    between atoms: _486  and  _489
REMARK  204  A    between atoms: _489  and  _490
REMARK  205  A    between atoms: _490  and  _491
REMARK  206  A    between atoms: _491  and  _492
REMARK  207  A    between atoms: _501  and  _503
REMARK  208  A    between atoms: _503  and  _504
REMARK  209  A    between atoms: _503  and  _506
REMARK  210  A    between atoms: _506  and  _507
REMARK                            x       y       z     vdW  Elec       q    Type
REMARK                         _______ _______ _______ _____ _____    ______ ____
ROOT
ATOM      1  C   ILE A   3      -8.398   9.898  35.434  0.00  0.00    +0.241 C 
ATOM      2  O   ILE A   3      -7.375   9.313  35.135  0.00  0.00    -0.273 OA
ATOM      3  N   GLY A   4      -9.482   9.964  34.670  0.00  0.00    -0.295 N 
ATOM      4  H   GLY A   4     -10.375  10.341  35.047  0.00  0.00    +0.150 HD
ENDROOT
BRANCH   1   5
ATOM      5  CA  ILE A   3      -8.418  10.607  36.722  0.00  0.00    +0.149 C 
BRANCH   5   8
ATOM      6  C   MET A   2      -7.542   9.423  38.601  0.00  0.00    +0.241 C 
ATOM      7  O   MET A   2      -8.641   9.346  39.127  0.00  0.00    -0.273 OA
ATOM      8  N   ILE A   3      -7.293  10.075  37.480  0.00  0.00    -0.297 N 
ATOM      9  H   ILE A   3      -6.317  10.206  37.146  0.00  0.00    +0.150 HD
BRANCH   6  10
ATOM     10  CA  MET A   2      -6.375   8.737  39.227  0.00  0.00    +0.149 C 
BRANCH  10  13
ATOM     11  C   LYS A   1      -5.527   9.519  41.393  0.00  0.00    +0.238 C 
ATOM     12  O   LYS A   1      -4.389   9.708  40.991  0.00  0.00    -0.274 OA
ATOM     13  N   MET A   2      -6.494   8.972  40.656  0.00  0.00    -0.297 N 
ATOM     14  H   MET A   2      -7.379   8.699  41.128  0.00  0.00    +0.150 HD
BRANCH  11  15
ATOM     15  CA  LYS A   1      -5.905   9.894  42.792  0.00  0.00    +0.145 C 
BRANCH  15  16
ATOM     16  N   LYS A   1      -4.624   9.902  43.482  0.00  0.00    -0.238 NA
ATOM     17  H   LYS A   1      -3.757   9.850  42.909  0.00  0.00    +0.142 HD
ENDBRANCH  15  16
BRANCH  15  18
ATOM     18  CB  LYS A   1      -6.596  11.308  42.830  0.00  0.00    +0.026 C 
BRANCH  18  19
ATOM     19  CG  LYS A   1      -7.757  11.534  41.816  0.00  0.00    -0.000 C 
BRANCH  19  20
ATOM     20  CD  LYS A   1      -8.915  12.553  42.097  0.00  0.00    -0.024 C 
BRANCH  20  21
ATOM     21  CE  LYS A   1     -10.072  12.447  41.042  0.00  0.00    -0.086 C 
BRANCH  21  22
ATOM     22  NZ  LYS A   1     -11.341  13.122  41.430  0.00  0.00    +0.380 N 
ATOM     23  HZ1 LYS A   1     -11.701  12.702  42.311  0.00  0.00    -0.089 HD
ATOM     24  HZ2 LYS A   1     -11.162  14.136  41.576  0.00  0.00    -0.089 HD
ATOM     25  HZ3 LYS A   1     -12.044  12.998  40.673  0.00  0.00    -0.089 HD
ENDBRANCH  21  22
ENDBRANCH  20  21
ENDBRANCH  19  20
ENDBRANCH  18  19
ENDBRANCH  15  18
ENDBRANCH  11  15
ENDBRANCH  10  13
BRANCH  10  26
ATOM     26  CB  MET A   2      -6.570   7.265  38.910  0.00  0.00    +0.041 C 
BRANCH  26  27
ATOM     27  CG  MET A   2      -5.267   6.579  39.178  0.00  0.00    +0.060 C 
BRANCH  27  28
ATOM     28  SD  MET A   2      -5.667   4.934  39.675  0.00  0.00    -0.139 S 
ATOM     29  CE  MET A   2      -5.391   5.147  41.476  0.00  0.00    +0.069 C 
ENDBRANCH  27  28
ENDBRANCH  26  27
ENDBRANCH  10  26
ENDBRANCH   6  10
ENDBRANCH   5   8
BRANCH   5  30
ATOM     30  CB  ILE A   3      -8.272  12.118  36.522  0.00  0.00    +0.027 C 
ATOM     31  CG2 ILE A   3      -8.394  12.788  37.863  0.00  0.00    +0.002 C 
BRANCH  30  32
ATOM     32  CG1 ILE A   3      -7.010  12.661  35.888  0.00  0.00    +0.002 C 
ATOM     33  CD1 ILE A   3      -7.366  14.101  35.509  0.00  0.00    +0.000 C 
ENDBRANCH  30  32
ENDBRANCH   5  30
ENDBRANCH   1   5
BRANCH   3  34
ATOM     34  CA  GLY A   4      -9.395   9.491  33.274  0.00  0.00    +0.176 C 
BRANCH  34  35
ATOM     35  C   GLY A   4      -9.375  10.635  32.279  0.00  0.00    +0.243 C 
ATOM     36  O   GLY A   4      -9.858  11.711  32.552  0.00  0.00    -0.273 OA
ATOM     37  N   GLY A   5      -8.833  10.394  31.118  0.00  0.00    -0.295 N 
ATOM     38  H   GLY A   5      -8.364   9.482  30.946  0.00  0.00    +0.150 HD
BRANCH  37  39
ATOM     39  CA  GLY A   5      -8.880  11.395  30.059  0.00  0.00    +0.176 C 
BRANCH  39  40
ATOM     40  C   GLY A   5      -9.132  10.726  28.757  0.00  0.00    +0.243 C 
ATOM     41  O   GLY A   5      -9.757   9.688  28.648  0.00  0.00    -0.273 OA
ATOM     42  N   ILE A   6      -8.618  11.332  27.719  0.00  0.00    -0.297 N 
ATOM     43  H   ILE A   6      -8.005  12.170  27.787  0.00  0.00    +0.150 HD
BRANCH  42  44
ATOM     44  CA  ILE A   6      -8.992  10.714  26.468  0.00  0.00    +0.149 C 
BRANCH  44  45
ATOM     45  C   ILE A   6      -8.005   9.644  26.274  0.00  0.00    +0.241 C 
ATOM     46  O   ILE A   6      -6.805   9.868  26.249  0.00  0.00    -0.273 OA
ATOM     47  N   GLY A   7      -8.569   8.449  26.224  0.00  0.00    -0.295 N 
ATOM     48  H   GLY A   7      -9.600   8.315  26.206  0.00  0.00    +0.150 HD
BRANCH  47  49
ATOM     49  CA  GLY A   7      -7.628   7.332  26.196  0.00  0.00    +0.176 C 
BRANCH  49  50
ATOM     50  C   GLY A   7      -6.627   7.308  27.367  0.00  0.00    +0.243 C 
ATOM     51  N   GLY A   8      -7.179   7.332  28.592  0.00  0.00    -0.296 N 
ATOM     52  H   GLY A   8      -8.105   7.766  28.783  0.00  0.00    +0.150 HD
ATOM     53  O   GLY A   7      -5.422   7.198  27.169  0.00  0.00    -0.273 OA
BRANCH  51  54
ATOM     54  CA  GLY A   8      -6.373   6.699  29.636  0.00  0.00    +0.163 C 
BRANCH  54  55
ATOM     55  C   GLY A   8      -6.452   7.371  30.966  0.00  0.00    +0.229 C 
ATOM     56  O   GLY A   8      -6.851   8.515  31.074  0.00  0.00    -0.286 OA
ENDBRANCH  54  55
ENDBRANCH  51  54
ENDBRANCH  49  50
ENDBRANCH  47  49
ENDBRANCH  44  45
BRANCH  44  57
ATOM     57  CB  ILE A   6      -9.063  11.692  25.265  0.00  0.00    +0.027 C 
ATOM     58  CG2 ILE A   6      -7.943  11.624  24.205  0.00  0.00    +0.002 C 
BRANCH  57  59
ATOM     59  CG1 ILE A   6     -10.396  11.511  24.559  0.00  0.00    +0.002 C 
ATOM     60  CD1 ILE A   6     -10.625  12.455  23.406  0.00  0.00    +0.000 C 
ENDBRANCH  57  59
ENDBRANCH  44  57
ENDBRANCH  42  44
ENDBRANCH  39  40
ENDBRANCH  37  39
ENDBRANCH  34  35
ENDBRANCH   3  34
TORSDOF 28
REMARK  Name = ../refined-set-2016/1dmp/1dmp_pocket.pdb
REMARK  210 active torsions:
REMARK  status: ('A' for Active; 'I' for Inactive)
REMARK    1  A    between atoms: _1  and  _3
REMARK    2  A    between atoms: _3  and  _4
REMARK    3  A    between atoms: _3  and  _6
REMARK    4  A    between atoms: _6  and  _7
REMARK    5  A    between atoms: _7  and  _8
REMARK    6  A    between atoms: _8  and  _9
REMARK    7  A    between atoms: _18  and  _20
REMARK    8  A    between atoms: _20  and  _21
REMARK    9  A    between atoms: _20  and  _23
REMARK   10  A    between atoms: _23  and  _24
REMARK   11  A    between atoms: _27  and  _29
REMARK   12  A    between atoms: _29  and  _30
REMARK   13  A    between atoms: _29  and  _32
REMARK   14  A    between atoms: _32  and  _33
REMARK   15  A    between atoms: _36  and  _38
REMARK   16  A    between atoms: _38  and  _39
REMARK   17  A    between atoms: _38  and  _41
REMARK   18  A    between atoms: _41  and  _42
REMARK   19  A    between atoms: _45  and  _47
REMARK   20  A    between atoms: _47  and  _48
REMARK   21  A    between atoms: _47  and  _50
REMARK   22  A    between atoms: _50  and  _51
REMARK   23  A    between atoms: _54  and  _56
REMARK   24  A    between atoms: _56  and  _57
REMARK   25  A    between atoms: _59  and  _61
REMARK   26  A    between atoms: _61  and  _62
REMARK   27  A    between atoms: _65  and  _67
REMARK   28  A    between atoms: _67  and  _68
REMARK   29  A    between atoms: _67  and  _70
REMARK   30  A    between atoms: _70  and  _71
REMARK   31  A    between atoms: _74  and  _76
REMARK   32  A    between atoms: _76  and  _77
REMARK   33  A    between atoms: _76  and  _79
REMARK   34  A    between atoms: _79  and  _80
REMARK   35  A    between atoms: _83  and  _85
REMARK   36  A    between atoms: _85  and  _86
REMARK   37  A    between atoms: _85  and  _88
REMARK   38  A    between atoms: _88  and  _89
REMARK   39  A    between atoms: _92  and  _94
REMARK   40  A    between atoms: _94  and  _95
REMARK   41  A    between atoms: _94  and  _97
REMARK   42  A    between atoms: _100  and  _102
REMARK   43  A    between atoms: _102  and  _103
REMARK   44  A    between atoms: _102  and  _105
REMARK   45  A    between atoms: _105  and  _106
REMARK   46  A    between atoms: _109  and  _111
REMARK   47  A    between atoms: _111  and  _112
REMARK   48  A    between atoms: _111  and  _114
REMARK   49  A    between atoms: _114  and  _115
REMARK   50  A    between atoms: _115  and  _116
REMARK   51  A    between atoms: _116  and  _117
REMARK   52  A    between atoms: _117  and  _118
REMARK   53  A    between atoms: _122  and  _124
REMARK   54  A    between atoms: _124  and  _125
REMARK   55  A    between atoms: _124  and  _127
REMARK   56  A    between atoms: _127  and  _128
REMARK   57  A    between atoms: _128  and  _129
REMARK   58  A    between atoms: _131  and  _133
REMARK   59  A    between atoms: _133  and  _134
REMARK   60  A    between atoms: _133  and  _136
REMARK   61  A    between atoms: _136  and  _137
REMARK   62  A    between atoms: _140  and  _142
REMARK   63  A    between atoms: _142  and  _143
REMARK   64  A    between atoms: _145  and  _147
REMARK   65  A    between atoms: _147  and  _148
REMARK   66  A    between atoms: _150  and  _152
REMARK   67  A    between atoms: _152  and  _153
REMARK   68  A    between atoms: _152  and  _155
REMARK   69  A    between atoms: _155  and  _156
REMARK   70  A    between atoms: _159  and  _161
REMARK   71  A    between atoms: _161  and  _162
REMARK   72  A    between atoms: _164  and  _166
REMARK   73  A    between atoms: _166  and  _167
REMARK   74  A    between atoms: _169  and  _171
REMARK   75  A    between atoms: _171  and  _172
REMARK   76  A    between atoms: _171  and  _174
REMARK   77  A    between atoms: _174  and  _175
REMARK   78  A    between atoms: _178  and  _180
REMARK   79  A    between atoms: _180  and  _181
REMARK   80  A    between atoms: _180  and  _183
REMARK   81  A    between atoms: _183  and  _184
REMARK   82  A    between atoms: _187  and  _189
REMARK   83  A    between atoms: _189  and  _190
REMARK   84  A    between atoms: _189  and  _192
REMARK   85  A    between atoms: _192  and  _193
REMARK   86  A    between atoms: _197  and  _198
REMARK   87  A    between atoms: _203  and  _205
REMARK   88  A    between atoms: _205  and  _206
REMARK   89  A    between atoms: _205  and  _208
REMARK   90  A    between atoms: _211  and  _213
REMARK   91  A    between atoms: _213  and  _214
REMARK   92  A    between atoms: _213  and  _216
REMARK   93  A    between atoms: _216  and  _217
REMARK   94  A    between atoms: _222  and  _224
REMARK   95  A    between atoms: _224  and  _225
REMARK   96  A    between atoms: _224  and  _227
REMARK   97  A    between atoms: _227  and  _228
REMARK   98  A    between atoms: _231  and  _233
REMARK   99  A    between atoms: _233  and  _234
REMARK  100  A    between atoms: _233  and  _236
REMARK  101  A    between atoms: _236  and  _237
REMARK  102  A    between atoms: _240  and  _242
REMARK  103  A    between atoms: _242  and  _243
REMARK  104  A    between atoms: _245  and  _247
REMARK  105  A    between atoms: _247  and  _248
REMARK  106  A    between atoms: _247  and  _250
REMARK  107  A    between atoms: _250  and  _251
REMARK  108  A    between atoms: _251  and  _252
REMARK  109  A    between atoms: _252  and  _253
REMARK  110  A    between atoms: _262  and  _264
REMARK  111  A    between atoms: _264  and  _265
REMARK  112  A    between atoms: _264  and  _267
REMARK  113  A    between atoms: _267  and  _268
REMARK  114  A    between atoms: _268  and  _269
REMARK  115  A    between atoms: _269  and  _270
REMARK  116  A    between atoms: _279  and  _281
REMARK  117  A    between atoms: _281  and  _282
REMARK  118  A    between atoms: _281  and  _284
REMARK  119  A    between atoms: _284  and  _285
REMARK  120  A    between atoms: _288  and  _290
REMARK  121  A    between atoms: _290  and  _291
REMARK  122  A    between atoms: _290  and  _293
REMARK  123  A    between atoms: _293  and  _294
REMARK  124  A    between atoms: _297  and  _299
REMARK  125  A    between atoms: _299  and  _300
REMARK  126  A    between atoms: _299  and  _302
REMARK  127  A    between atoms: _302  and  _303
REMARK  128  A    between atoms: _306  and  _308
REMARK  129  A    between atoms: _308  and  _309
REMARK  130  A    between atoms: _308  and  _311
REMARK  131  A    between atoms: _311  and  _312
REMARK  132  A    between atoms: _315  and  _317
REMARK  133  A    between atoms: _317  and  _318
REMARK  134  A    between atoms: _320  and  _322
REMARK  135  A    between atoms: _322  and  _323
REMARK  136  A    between atoms: _326  and  _328
REMARK  137  A    between atoms: _328  and  _329
REMARK  138  A    between atoms: _328  and  _331
REMARK  139  A    between atoms: _331  and  _332
REMARK  140  A    between atoms: _335  and  _337
REMARK  141  A    between atoms: _337  and  _338
REMARK  142  A    between atoms: _337  and  _340
REMARK  143  A    between atoms: _340  and  _341
REMARK  144  A    between atoms: _344  and  _346
REMARK  145  A    between atoms: _346  and  _347
REMARK  146  A    between atoms: _346  and  _349
REMARK  147  A    between atoms: _349  and  _350
REMARK  148  A    between atoms: _353  and  _355
REMARK  149  A    between atoms: _355  and  _356
REMARK  150  A    between atoms: _355  and  _358
REMARK  151  A    between atoms: _361  and  _363
REMARK  152  A    between atoms: _363  and  _364
REMARK  153  A    between atoms: _363  and  _366
REMARK  154  A    between atoms: _366  and  _367
REMARK  155  A    between atoms: _370  and  _372
REMARK  156  A    between atoms: _372  and  _373
REMARK  157  A    between atoms: _372  and  _375
REMARK  158  A    between atoms: _375  and  _376
REMARK  159  A    between atoms: _379  and  _381
REMARK  160  A    between atoms: _381  and  _382
REMARK  161  A    between atoms: _384  and  _386
REMARK  162  A    between atoms: _386  and  _387
REMARK  163  A    between atoms: _389  and  _391
REMARK  164  A    between atoms: _391  and  _392
REMARK  165  A    between atoms: _391  and  _394
REMARK  166  A    between atoms: _394  and  _395
REMARK  167  A    between atoms: _398  and  _400
REMARK  168  A    between atoms: _400  and  _401
REMARK  169  A    between atoms: _403  and  _405
REMARK  170  A    between atoms: _405  and  _406
REMARK  171  A    between atoms: _408  and  _410
REMARK  172  A    between atoms: _410  and  _411
REMARK  173  A    between atoms: _410  and  _413
REMARK  174  A    between atoms: _413  and  _414
REMARK  175  A    between atoms: _417  and  _419
REMARK  176  A    between atoms: _419  and  _420
REMARK  177  A    between atoms: _419  and  _422
REMARK  178  A    between atoms: _422  and  _423
REMARK  179  A    between atoms: _426  and  _428
REMARK  180  A    between atoms: _428  and  _429
REMARK  181  A    between atoms: _428  and  _431
REMARK  182  A    between atoms: _431  and  _432
REMARK  183  A    between atoms: _436  and  _437
REMARK  184  A    between atoms: _442  and  _444
REMARK  185  A    between atoms: _444  and  _445
REMARK  186  A    between atoms: _444  and  _447
REMARK  187  A    between atoms: _450  and  _452
REMARK  188  A    between atoms: _452  and  _453
REMARK  189  A    between atoms: _452  and  _455
REMARK  190  A    between atoms: _455  and  _456
REMARK  191  A    between atoms: _461  and  _463
REMARK  192  A    between atoms: _463  and  _464
REMARK  193  A    between atoms: _463  and  _466
REMARK  194  A    between atoms: _466  and  _467
REMARK  195  A    between atoms: _470  and  _472
REMARK  196  A    between atoms: _472  and  _473
REMARK  197  A    between atoms: _472  and  _475
REMARK  198  A    between atoms: _475  and  _476
REMARK  199  A    between atoms: _479  and  _481
REMARK  200  A    between atoms: _481  and  _482
REMARK  201  A    between atoms: _484  and  _486
REMARK  202  A    between atoms: _486  and  _487
REMARK  203  A    between atoms: _486  and  _489
REMARK  204  A    between atoms: _489  and  _490
REMARK  205  A    between atoms: _490  and  _491
REMARK  206  A    between atoms: _491  and  _492
REMARK  207  A    between atoms: _501  and  _503
REMARK  208  A    between atoms: _503  and  _504
REMARK  209  A    between atoms: _503  and  _506
REMARK  210  A    between atoms: _506  and  _507
REMARK                            x       y       z     vdW  Elec       q    Type
REMARK                         _______ _______ _______ _____ _____    ______ ____
ROOT
ATOM      1  CA  ILE A   1      -3.332   8.992  35.005  0.00  0.00    +0.133 C 
ENDROOT
BRANCH   1   2
ATOM      2  N   ILE A   1      -4.610   8.693  34.401  0.00  0.00    -0.239 NA
ATOM      3  H   ILE A   1      -5.438   9.309  34.531  0.00  0.00    +0.142 HD
ENDBRANCH   1   2
BRANCH   1   4
ATOM      4  C   ILE A   1      -3.548   9.074  36.486  0.00  0.00    +0.224 C 
ATOM      5  O   ILE A   1      -4.595   9.459  36.982  0.00  0.00    -0.287 OA
ENDBRANCH   1   4
BRANCH   1   6
ATOM      6  CB  ILE A   1      -2.729  10.312  34.523  0.00  0.00    +0.023 C 
ATOM      7  CG2 ILE A   1      -2.111  10.055  33.170  0.00  0.00    +0.002 C 
BRANCH   6   8
ATOM      8  CG1 ILE A   1      -3.710  11.521  34.590  0.00  0.00    +0.002 C 
ATOM      9  CD1 ILE A   1      -3.054  12.902  34.812  0.00  0.00    +0.000 C 
ENDBRANCH   6   8
ENDBRANCH   1   6
TORSDOF 4
REMARK  Name = ../refined-set-2016/1dmp/1dmp_pocket.pdb
REMARK  210 active torsions:
REMARK  status: ('A' for Active; 'I' for Inactive)
REMARK    1  A    between atoms: _1  and  _3
REMARK    2  A    between atoms: _3  and  _4
REMARK    3  A    between atoms: _3  and  _6
REMARK    4  A    between atoms: _6  and  _7
REMARK    5  A    between atoms: _7  and  _8
REMARK    6  A    between atoms: _8  and  _9
REMARK    7  A    between atoms: _18  and  _20
REMARK    8  A    between atoms: _20  and  _21
REMARK    9  A    between atoms: _20  and  _23
REMARK   10  A    between atoms: _23  and  _24
REMARK   11  A    between atoms: _27  and  _29
REMARK   12  A    between atoms: _29  and  _30
REMARK   13  A    between atoms: _29  and  _32
REMARK   14  A    between atoms: _32  and  _33
REMARK   15  A    between atoms: _36  and  _38
REMARK   16  A    between atoms: _38  and  _39
REMARK   17  A    between atoms: _38  and  _41
REMARK   18  A    between atoms: _41  and  _42
REMARK   19  A    between atoms: _45  and  _47
REMARK   20  A    between atoms: _47  and  _48
REMARK   21  A    between atoms: _47  and  _50
REMARK   22  A    between atoms: _50  and  _51
REMARK   23  A    between atoms: _54  and  _56
REMARK   24  A    between atoms: _56  and  _57
REMARK   25  A    between atoms: _59  and  _61
REMARK   26  A    between atoms: _61  and  _62
REMARK   27  A    between atoms: _65  and  _67
REMARK   28  A    between atoms: _67  and  _68
REMARK   29  A    between atoms: _67  and  _70
REMARK   30  A    between atoms: _70  and  _71
REMARK   31  A    between atoms: _74  and  _76
REMARK   32  A    between atoms: _76  and  _77
REMARK   33  A    between atoms: _76  and  _79
REMARK   34  A    between atoms: _79  and  _80
REMARK   35  A    between atoms: _83  and  _85
REMARK   36  A    between atoms: _85  and  _86
REMARK   37  A    between atoms: _85  and  _88
REMARK   38  A    between atoms: _88  and  _89
REMARK   39  A    between atoms: _92  and  _94
REMARK   40  A    between atoms: _94  and  _95
REMARK   41  A    between atoms: _94  and  _97
REMARK   42  A    between atoms: _100  and  _102
REMARK   43  A    between atoms: _102  and  _103
REMARK   44  A    between atoms: _102  and  _105
REMARK   45  A    between atoms: _105  and  _106
REMARK   46  A    between atoms: _109  and  _111
REMARK   47  A    between atoms: _111  and  _112
REMARK   48  A    between atoms: _111  and  _114
REMARK   49  A    between atoms: _114  and  _115
REMARK   50  A    between atoms: _115  and  _116
REMARK   51  A    between atoms: _116  and  _117
REMARK   52  A    between atoms: _117  and  _118
REMARK   53  A    between atoms: _122  and  _124
REMARK   54  A    between atoms: _124  and  _125
REMARK   55  A    between atoms: _124  and  _127
REMARK   56  A    between atoms: _127  and  _128
REMARK   57  A    between atoms: _128  and  _129
REMARK   58  A    between atoms: _131  and  _133
REMARK   59  A    between atoms: _133  and  _134
REMARK   60  A    between atoms: _133  and  _136
REMARK   61  A    between atoms: _136  and  _137
REMARK   62  A    between atoms: _140  and  _142
REMARK   63  A    between atoms: _142  and  _143
REMARK   64  A    between atoms: _145  and  _147
REMARK   65  A    between atoms: _147  and  _148
REMARK   66  A    between atoms: _150  and  _152
REMARK   67  A    between atoms: _152  and  _153
REMARK   68  A    between atoms: _152  and  _155
REMARK   69  A    between atoms: _155  and  _156
REMARK   70  A    between atoms: _159  and  _161
REMARK   71  A    between atoms: _161  and  _162
REMARK   72  A    between atoms: _164  and  _166
REMARK   73  A    between atoms: _166  and  _167
REMARK   74  A    between atoms: _169  and  _171
REMARK   75  A    between atoms: _171  and  _172
REMARK   76  A    between atoms: _171  and  _174
REMARK   77  A    between atoms: _174  and  _175
REMARK   78  A    between atoms: _178  and  _180
REMARK   79  A    between atoms: _180  and  _181
REMARK   80  A    between atoms: _180  and  _183
REMARK   81  A    between atoms: _183  and  _184
REMARK   82  A    between atoms: _187  and  _189
REMARK   83  A    between atoms: _189  and  _190
REMARK   84  A    between atoms: _189  and  _192
REMARK   85  A    between atoms: _192  and  _193
REMARK   86  A    between atoms: _197  and  _198
REMARK   87  A    between atoms: _203  and  _205
REMARK   88  A    between atoms: _205  and  _206
REMARK   89  A    between atoms: _205  and  _208
REMARK   90  A    between atoms: _211  and  _213
REMARK   91  A    between atoms: _213  and  _214
REMARK   92  A    between atoms: _213  and  _216
REMARK   93  A    between atoms: _216  and  _217
REMARK   94  A    between atoms: _222  and  _224
REMARK   95  A    between atoms: _224  and  _225
REMARK   96  A    between atoms: _224  and  _227
REMARK   97  A    between atoms: _227  and  _228
REMARK   98  A    between atoms: _231  and  _233
REMARK   99  A    between atoms: _233  and  _234
REMARK  100  A    between atoms: _233  and  _236
REMARK  101  A    between atoms: _236  and  _237
REMARK  102  A    between atoms: _240  and  _242
REMARK  103  A    between atoms: _242  and  _243
REMARK  104  A    between atoms: _245  and  _247
REMARK  105  A    between atoms: _247  and  _248
REMARK  106  A    between atoms: _247  and  _250
REMARK  107  A    between atoms: _250  and  _251
REMARK  108  A    between atoms: _251  and  _252
REMARK  109  A    between atoms: _252  and  _253
REMARK  110  A    between atoms: _262  and  _264
REMARK  111  A    between atoms: _264  and  _265
REMARK  112  A    between atoms: _264  and  _267
REMARK  113  A    between atoms: _267  and  _268
REMARK  114  A    between atoms: _268  and  _269
REMARK  115  A    between atoms: _269  and  _270
REMARK  116  A    between atoms: _279  and  _281
REMARK  117  A    between atoms: _281  and  _282
REMARK  118  A    between atoms: _281  and  _284
REMARK  119  A    between atoms: _284  and  _285
REMARK  120  A    between atoms: _288  and  _290
REMARK  121  A    between atoms: _290  and  _291
REMARK  122  A    between atoms: _290  and  _293
REMARK  123  A    between atoms: _293  and  _294
REMARK  124  A    between atoms: _297  and  _299
REMARK  125  A    between atoms: _299  and  _300
REMARK  126  A    between atoms: _299  and  _302
REMARK  127  A    between atoms: _302  and  _303
REMARK  128  A    between atoms: _306  and  _308
REMARK  129  A    between atoms: _308  and  _309
REMARK  130  A    between atoms: _308  and  _311
REMARK  131  A    between atoms: _311  and  _312
REMARK  132  A    between atoms: _315  and  _317
REMARK  133  A    between atoms: _317  and  _318
REMARK  134  A    between atoms: _320  and  _322
REMARK  135  A    between atoms: _322  and  _323
REMARK  136  A    between atoms: _326  and  _328
REMARK  137  A    between atoms: _328  and  _329
REMARK  138  A    between atoms: _328  and  _331
REMARK  139  A    between atoms: _331  and  _332
REMARK  140  A    between atoms: _335  and  _337
REMARK  141  A    between atoms: _337  and  _338
REMARK  142  A    between atoms: _337  and  _340
REMARK  143  A    between atoms: _340  and  _341
REMARK  144  A    between atoms: _344  and  _346
REMARK  145  A    between atoms: _346  and  _347
REMARK  146  A    between atoms: _346  and  _349
REMARK  147  A    between atoms: _349  and  _350
REMARK  148  A    between atoms: _353  and  _355
REMARK  149  A    between atoms: _355  and  _356
REMARK  150  A    between atoms: _355  and  _358
REMARK  151  A    between atoms: _361  and  _363
REMARK  152  A    between atoms: _363  and  _364
REMARK  153  A    between atoms: _363  and  _366
REMARK  154  A    between atoms: _366  and  _367
REMARK  155  A    between atoms: _370  and  _372
REMARK  156  A    between atoms: _372  and  _373
REMARK  157  A    between atoms: _372  and  _375
REMARK  158  A    between atoms: _375  and  _376
REMARK  159  A    between atoms: _379  and  _381
REMARK  160  A    between atoms: _381  and  _382
REMARK  161  A    between atoms: _384  and  _386
REMARK  162  A    between atoms: _386  and  _387
REMARK  163  A    between atoms: _389  and  _391
REMARK  164  A    between atoms: _391  and  _392
REMARK  165  A    between atoms: _391  and  _394
REMARK  166  A    between atoms: _394  and  _395
REMARK  167  A    between atoms: _398  and  _400
REMARK  168  A    between atoms: _400  and  _401
REMARK  169  A    between atoms: _403  and  _405
REMARK  170  A    between atoms: _405  and  _406
REMARK  171  A    between atoms: _408  and  _410
REMARK  172  A    between atoms: _410  and  _411
REMARK  173  A    between atoms: _410  and  _413
REMARK  174  A    between atoms: _413  and  _414
REMARK  175  A    between atoms: _417  and  _419
REMARK  176  A    between atoms: _419  and  _420
REMARK  177  A    between atoms: _419  and  _422
REMARK  178  A    between atoms: _422  and  _423
REMARK  179  A    between atoms: _426  and  _428
REMARK  180  A    between atoms: _428  and  _429
REMARK  181  A    between atoms: _428  and  _431
REMARK  182  A    between atoms: _431  and  _432
REMARK  183  A    between atoms: _436  and  _437
REMARK  184  A    between atoms: _442  and  _444
REMARK  185  A    between atoms: _444  and  _445
REMARK  186  A    between atoms: _444  and  _447
REMARK  187  A    between atoms: _450  and  _452
REMARK  188  A    between atoms: _452  and  _453
REMARK  189  A    between atoms: _452  and  _455
REMARK  190  A    between atoms: _455  and  _456
REMARK  191  A    between atoms: _461  and  _463
REMARK  192  A    between atoms: _463  and  _464
REMARK  193  A    between atoms: _463  and  _466
REMARK  194  A    between atoms: _466  and  _467
REMARK  195  A    between atoms: _470  and  _472
REMARK  196  A    between atoms: _472  and  _473
REMARK  197  A    between atoms: _472  and  _475
REMARK  198  A    between atoms: _475  and  _476
REMARK  199  A    between atoms: _479  and  _481
REMARK  200  A    between atoms: _481  and  _482
REMARK  201  A    between atoms: _484  and  _486
REMARK  202  A    between atoms: _486  and  _487
REMARK  203  A    between atoms: _486  and  _489
REMARK  204  A    between atoms: _489  and  _490
REMARK  205  A    between atoms: _490  and  _491
REMARK  206  A    between atoms: _491  and  _492
REMARK  207  A    between atoms: _501  and  _503
REMARK  208  A    between atoms: _503  and  _504
REMARK  209  A    between atoms: _503  and  _506
REMARK  210  A    between atoms: _506  and  _507
REMARK                            x       y       z     vdW  Elec       q    Type
REMARK                         _______ _______ _______ _____ _____    ______ ____
ROOT
ATOM      1  CA  LEU A   1      -4.108  17.766  41.157  0.00  0.00    +0.133 C 
ENDROOT
BRANCH   1   2
ATOM      2  N   LEU A   1      -4.659  19.092  41.165  0.00  0.00    -0.239 NA
ATOM      3  H   LEU A   1      -4.972  19.550  40.285  0.00  0.00    +0.142 HD
ENDBRANCH   1   2
BRANCH   1   4
ATOM      4  C   LEU A   1      -2.818  17.871  40.401  0.00  0.00    +0.224 C 
ATOM      5  O   LEU A   1      -2.843  18.423  39.321  0.00  0.00    -0.287 OA
ENDBRANCH   1   4
BRANCH   1   6
ATOM      6  CB  LEU A   1      -5.052  16.917  40.294  0.00  0.00    +0.025 C 
BRANCH   6   7
ATOM      7  CG  LEU A   1      -6.265  16.207  40.909  0.00  0.00    +0.002 C 
ATOM      8  CD2 LEU A   1      -7.121  17.163  41.709  0.00  0.00    +0.000 C 
ATOM      9  CD1 LEU A   1      -7.102  15.508  39.834  0.00  0.00    +0.000 C 
ENDBRANCH   6   7
ENDBRANCH   1   6
TORSDOF 4
REMARK  Name = ../refined-set-2016/1dmp/1dmp_pocket.pdb
REMARK  210 active torsions:
REMARK  status: ('A' for Active; 'I' for Inactive)
REMARK    1  A    between atoms: _1  and  _3
REMARK    2  A    between atoms: _3  and  _4
REMARK    3  A    between atoms: _3  and  _6
REMARK    4  A    between atoms: _6  and  _7
REMARK    5  A    between atoms: _7  and  _8
REMARK    6  A    between atoms: _8  and  _9
REMARK    7  A    between atoms: _18  and  _20
REMARK    8  A    between atoms: _20  and  _21
REMARK    9  A    between atoms: _20  and  _23
REMARK   10  A    between atoms: _23  and  _24
REMARK   11  A    between atoms: _27  and  _29
REMARK   12  A    between atoms: _29  and  _30
REMARK   13  A    between atoms: _29  and  _32
REMARK   14  A    between atoms: _32  and  _33
REMARK   15  A    between atoms: _36  and  _38
REMARK   16  A    between atoms: _38  and  _39
REMARK   17  A    between atoms: _38  and  _41
REMARK   18  A    between atoms: _41  and  _42
REMARK   19  A    between atoms: _45  and  _47
REMARK   20  A    between atoms: _47  and  _48
REMARK   21  A    between atoms: _47  and  _50
REMARK   22  A    between atoms: _50  and  _51
REMARK   23  A    between atoms: _54  and  _56
REMARK   24  A    between atoms: _56  and  _57
REMARK   25  A    between atoms: _59  and  _61
REMARK   26  A    between atoms: _61  and  _62
REMARK   27  A    between atoms: _65  and  _67
REMARK   28  A    between atoms: _67  and  _68
REMARK   29  A    between atoms: _67  and  _70
REMARK   30  A    between atoms: _70  and  _71
REMARK   31  A    between atoms: _74  and  _76
REMARK   32  A    between atoms: _76  and  _77
REMARK   33  A    between atoms: _76  and  _79
REMARK   34  A    between atoms: _79  and  _80
REMARK   35  A    between atoms: _83  and  _85
REMARK   36  A    between atoms: _85  and  _86
REMARK   37  A    between atoms: _85  and  _88
REMARK   38  A    between atoms: _88  and  _89
REMARK   39  A    between atoms: _92  and  _94
REMARK   40  A    between atoms: _94  and  _95
REMARK   41  A    between atoms: _94  and  _97
REMARK   42  A    between atoms: _100  and  _102
REMARK   43  A    between atoms: _102  and  _103
REMARK   44  A    between atoms: _102  and  _105
REMARK   45  A    between atoms: _105  and  _106
REMARK   46  A    between atoms: _109  and  _111
REMARK   47  A    between atoms: _111  and  _112
REMARK   48  A    between atoms: _111  and  _114
REMARK   49  A    between atoms: _114  and  _115
REMARK   50  A    between atoms: _115  and  _116
REMARK   51  A    between atoms: _116  and  _117
REMARK   52  A    between atoms: _117  and  _118
REMARK   53  A    between atoms: _122  and  _124
REMARK   54  A    between atoms: _124  and  _125
REMARK   55  A    between atoms: _124  and  _127
REMARK   56  A    between atoms: _127  and  _128
REMARK   57  A    between atoms: _128  and  _129
REMARK   58  A    between atoms: _131  and  _133
REMARK   59  A    between atoms: _133  and  _134
REMARK   60  A    between atoms: _133  and  _136
REMARK   61  A    between atoms: _136  and  _137
REMARK   62  A    between atoms: _140  and  _142
REMARK   63  A    between atoms: _142  and  _143
REMARK   64  A    between atoms: _145  and  _147
REMARK   65  A    between atoms: _147  and  _148
REMARK   66  A    between atoms: _150  and  _152
REMARK   67  A    between atoms: _152  and  _153
REMARK   68  A    between atoms: _152  and  _155
REMARK   69  A    between atoms: _155  and  _156
REMARK   70  A    between atoms: _159  and  _161
REMARK   71  A    between atoms: _161  and  _162
REMARK   72  A    between atoms: _164  and  _166
REMARK   73  A    between atoms: _166  and  _167
REMARK   74  A    between atoms: _169  and  _171
REMARK   75  A    between atoms: _171  and  _172
REMARK   76  A    between atoms: _171  and  _174
REMARK   77  A    between atoms: _174  and  _175
REMARK   78  A    between atoms: _178  and  _180
REMARK   79  A    between atoms: _180  and  _181
REMARK   80  A    between atoms: _180  and  _183
REMARK   81  A    between atoms: _183  and  _184
REMARK   82  A    between atoms: _187  and  _189
REMARK   83  A    between atoms: _189  and  _190
REMARK   84  A    between atoms: _189  and  _192
REMARK   85  A    between atoms: _192  and  _193
REMARK   86  A    between atoms: _197  and  _198
REMARK   87  A    between atoms: _203  and  _205
REMARK   88  A    between atoms: _205  and  _206
REMARK   89  A    between atoms: _205  and  _208
REMARK   90  A    between atoms: _211  and  _213
REMARK   91  A    between atoms: _213  and  _214
REMARK   92  A    between atoms: _213  and  _216
REMARK   93  A    between atoms: _216  and  _217
REMARK   94  A    between atoms: _222  and  _224
REMARK   95  A    between atoms: _224  and  _225
REMARK   96  A    between atoms: _224  and  _227
REMARK   97  A    between atoms: _227  and  _228
REMARK   98  A    between atoms: _231  and  _233
REMARK   99  A    between atoms: _233  and  _234
REMARK  100  A    between atoms: _233  and  _236
REMARK  101  A    between atoms: _236  and  _237
REMARK  102  A    between atoms: _240  and  _242
REMARK  103  A    between atoms: _242  and  _243
REMARK  104  A    between atoms: _245  and  _247
REMARK  105  A    between atoms: _247  and  _248
REMARK  106  A    between atoms: _247  and  _250
REMARK  107  A    between atoms: _250  and  _251
REMARK  108  A    between atoms: _251  and  _252
REMARK  109  A    between atoms: _252  and  _253
REMARK  110  A    between atoms: _262  and  _264
REMARK  111  A    between atoms: _264  and  _265
REMARK  112  A    between atoms: _264  and  _267
REMARK  113  A    between atoms: _267  and  _268
REMARK  114  A    between atoms: _268  and  _269
REMARK  115  A    between atoms: _269  and  _270
REMARK  116  A    between atoms: _279  and  _281
REMARK  117  A    between atoms: _281  and  _282
REMARK  118  A    between atoms: _281  and  _284
REMARK  119  A    between atoms: _284  and  _285
REMARK  120  A    between atoms: _288  and  _290
REMARK  121  A    between atoms: _290  and  _291
REMARK  122  A    between atoms: _290  and  _293
REMARK  123  A    between atoms: _293  and  _294
REMARK  124  A    between atoms: _297  and  _299
REMARK  125  A    between atoms: _299  and  _300
REMARK  126  A    between atoms: _299  and  _302
REMARK  127  A    between atoms: _302  and  _303
REMARK  128  A    between atoms: _306  and  _308
REMARK  129  A    between atoms: _308  and  _309
REMARK  130  A    between atoms: _308  and  _311
REMARK  131  A    between atoms: _311  and  _312
REMARK  132  A    between atoms: _315  and  _317
REMARK  133  A    between atoms: _317  and  _318
REMARK  134  A    between atoms: _320  and  _322
REMARK  135  A    between atoms: _322  and  _323
REMARK  136  A    between atoms: _326  and  _328
REMARK  137  A    between atoms: _328  and  _329
REMARK  138  A    between atoms: _328  and  _331
REMARK  139  A    between atoms: _331  and  _332
REMARK  140  A    between atoms: _335  and  _337
REMARK  141  A    between atoms: _337  and  _338
REMARK  142  A    between atoms: _337  and  _340
REMARK  143  A    between atoms: _340  and  _341
REMARK  144  A    between atoms: _344  and  _346
REMARK  145  A    between atoms: _346  and  _347
REMARK  146  A    between atoms: _346  and  _349
REMARK  147  A    between atoms: _349  and  _350
REMARK  148  A    between atoms: _353  and  _355
REMARK  149  A    between atoms: _355  and  _356
REMARK  150  A    between atoms: _355  and  _358
REMARK  151  A    between atoms: _361  and  _363
REMARK  152  A    between atoms: _363  and  _364
REMARK  153  A    between atoms: _363  and  _366
REMARK  154  A    between atoms: _366  and  _367
REMARK  155  A    between atoms: _370  and  _372
REMARK  156  A    between atoms: _372  and  _373
REMARK  157  A    between atoms: _372  and  _375
REMARK  158  A    between atoms: _375  and  _376
REMARK  159  A    between atoms: _379  and  _381
REMARK  160  A    between atoms: _381  and  _382
REMARK  161  A    between atoms: _384  and  _386
REMARK  162  A    between atoms: _386  and  _387
REMARK  163  A    between atoms: _389  and  _391
REMARK  164  A    between atoms: _391  and  _392
REMARK  165  A    between atoms: _391  and  _394
REMARK  166  A    between atoms: _394  and  _395
REMARK  167  A    between atoms: _398  and  _400
REMARK  168  A    between atoms: _400  and  _401
REMARK  169  A    between atoms: _403  and  _405
REMARK  170  A    between atoms: _405  and  _406
REMARK  171  A    between atoms: _408  and  _410
REMARK  172  A    between atoms: _410  and  _411
REMARK  173  A    between atoms: _410  and  _413
REMARK  174  A    between atoms: _413  and  _414
REMARK  175  A    between atoms: _417  and  _419
REMARK  176  A    between atoms: _419  and  _420
REMARK  177  A    between atoms: _419  and  _422
REMARK  178  A    between atoms: _422  and  _423
REMARK  179  A    between atoms: _426  and  _428
REMARK  180  A    between atoms: _428  and  _429
REMARK  181  A    between atoms: _428  and  _431
REMARK  182  A    between atoms: _431  and  _432
REMARK  183  A    between atoms: _436  and  _437
REMARK  184  A    between atoms: _442  and  _444
REMARK  185  A    between atoms: _444  and  _445
REMARK  186  A    between atoms: _444  and  _447
REMARK  187  A    between atoms: _450  and  _452
REMARK  188  A    between atoms: _452  and  _453
REMARK  189  A    between atoms: _452  and  _455
REMARK  190  A    between atoms: _455  and  _456
REMARK  191  A    between atoms: _461  and  _463
REMARK  192  A    between atoms: _463  and  _464
REMARK  193  A    between atoms: _463  and  _466
REMARK  194  A    between atoms: _466  and  _467
REMARK  195  A    between atoms: _470  and  _472
REMARK  196  A    between atoms: _472  and  _473
REMARK  197  A    between atoms: _472  and  _475
REMARK  198  A    between atoms: _475  and  _476
REMARK  199  A    between atoms: _479  and  _481
REMARK  200  A    between atoms: _481  and  _482
REMARK  201  A    between atoms: _484  and  _486
REMARK  202  A    between atoms: _486  and  _487
REMARK  203  A    between atoms: _486  and  _489
REMARK  204  A    between atoms: _489  and  _490
REMARK  205  A    between atoms: _490  and  _491
REMARK  206  A    between atoms: _491  and  _492
REMARK  207  A    between atoms: _501  and  _503
REMARK  208  A    between atoms: _503  and  _504
REMARK  209  A    between atoms: _503  and  _506
REMARK  210  A    between atoms: _506  and  _507
REMARK                            x       y       z     vdW  Elec       q    Type
REMARK                         _______ _______ _______ _____ _____    ______ ____
ROOT
ATOM      1  CA  ILE A   5      -5.867  22.819  32.651  0.00  0.00    +0.149 C 
ENDROOT
BRANCH   1   2
ATOM      2  C   ILE A   5      -6.526  23.267  33.945  0.00  0.00    +0.241 C 
ATOM      3  O   ILE A   5      -6.178  22.743  35.001  0.00  0.00    -0.273 OA
ATOM      4  N   ILE A   6      -7.429  24.250  33.788  0.00  0.00    -0.297 N 
ATOM      5  H   ILE A   6      -7.504  24.681  32.844  0.00  0.00    +0.150 HD
BRANCH   4   6
ATOM      6  CA  ILE A   6      -8.309  24.762  34.823  0.00  0.00    +0.149 C 
BRANCH   6   7
ATOM      7  C   ILE A   6      -9.700  24.364  34.425  0.00  0.00    +0.241 C 
ATOM      8  N   GLY A   7     -10.256  23.435  35.221  0.00  0.00    -0.295 N 
ATOM      9  H   GLY A   7      -9.712  23.084  36.035  0.00  0.00    +0.150 HD
ATOM     10  O   ILE A   6     -10.216  24.861  33.436  0.00  0.00    -0.273 OA
BRANCH   8  11
ATOM     11  CA  GLY A   7     -11.570  22.909  34.991  0.00  0.00    +0.176 C 
BRANCH  11  12
ATOM     12  C   GLY A   7     -12.585  23.582  35.875  0.00  0.00    +0.243 C 
ATOM     13  O   GLY A   7     -12.387  24.641  36.486  0.00  0.00    -0.273 OA
ATOM     14  N   ARG A   8     -13.725  22.926  35.949  0.00  0.00    -0.298 N 
ATOM     15  H   ARG A   8     -13.817  21.940  35.632  0.00  0.00    +0.150 HD
BRANCH  14  16
ATOM     16  CA  ARG A   8     -14.850  23.671  36.504  0.00  0.00    +0.137 C 
BRANCH  16  17
ATOM     17  C   ARG A   8     -14.973  23.817  37.992  0.00  0.00    +0.227 C 
ATOM     18  O   ARG A   8     -15.620  24.716  38.493  0.00  0.00    -0.286 OA
ENDBRANCH  16  17
BRANCH  16  19
ATOM     19  CB  ARG A   8     -16.177  23.170  35.994  0.00  0.00    +0.031 C 
BRANCH  19  20
ATOM     20  CG  ARG A   8     -16.222  22.728  34.555  0.00  0.00    +0.045 C 
BRANCH  20  21
ATOM     21  CD  ARG A   8     -17.627  22.189  34.262  0.00  0.00    +0.174 C 
BRANCH  21  22
ATOM     22  NE  ARG A   8     -18.225  21.649  35.494  0.00  0.00    -0.265 N 
ATOM     23  HE  ARG A   8     -18.620  22.290  36.211  0.00  0.00    +0.259 HD
ATOM     24  CZ  ARG A   8     -18.255  20.350  35.678  0.00  0.00    +0.342 C 
ATOM     25  NH2 ARG A   8     -18.871  19.832  36.711  0.00  0.00    -0.292 N 
ATOM     26 HH21 ARG A   8     -19.345  20.452  37.399  0.00  0.00    +0.255 HD
ATOM     27 HH22 ARG A   8     -18.886  18.801  36.844  0.00  0.00    +0.255 HD
ATOM     28  NH1 ARG A   8     -17.710  19.548  34.802  0.00  0.00    -0.292 N 
ATOM     29 HH11 ARG A   8     -17.736  18.519  34.952  0.00  0.00    +0.255 HD
ATOM     30 HH12 ARG A   8     -17.250  19.939  33.955  0.00  0.00    +0.255 HD
ENDBRANCH  21  22
ENDBRANCH  20  21
ENDBRANCH  19  20
ENDBRANCH  16  19
ENDBRANCH  14  16
ENDBRANCH  11  12
ENDBRANCH   8  11
ENDBRANCH   6   7
BRANCH   6  31
ATOM     31  CB  ILE A   6      -8.305  26.287  34.844  0.00  0.00    +0.027 C 
ATOM     32  CG2 ILE A   6      -9.067  26.821  36.058  0.00  0.00    +0.002 C 
BRANCH  31  33
ATOM     33  CG1 ILE A   6      -6.905  26.924  34.823  0.00  0.00    +0.002 C 
ATOM     34  CD1 ILE A   6      -6.079  26.734  36.112  0.00  0.00    +0.000 C 
ENDBRANCH  31  33
ENDBRANCH   6  31
ENDBRANCH   4   6
ENDBRANCH   1   2
BRANCH   1  36
ATOM     35  C   ASN A   4      -3.466  23.198  32.209  0.00  0.00    +0.241 C 
ATOM     36  N   ILE A   5      -4.446  22.805  32.992  0.00  0.00    -0.297 N 
ATOM     37  H   ILE A   5      -4.188  22.454  33.936  0.00  0.00    +0.150 HD
ATOM     38  O   ASN A   4      -3.657  23.936  31.255  0.00  0.00    -0.273 OA
BRANCH  35  39
ATOM     39  CA  ASN A   4      -2.066  22.665  32.533  0.00  0.00    +0.158 C 
BRANCH  39  41
ATOM     40  C   VAL A   3      -1.607  21.288  30.658  0.00  0.00    +0.241 C 
ATOM     41  N   ASN A   4      -1.353  22.413  31.276  0.00  0.00    -0.297 N 
ATOM     42  H   ASN A   4      -0.674  23.100  30.892  0.00  0.00    +0.150 HD
ATOM     43  O   VAL A   3      -2.370  20.454  31.111  0.00  0.00    -0.273 OA
BRANCH  40  44
ATOM     44  CA  VAL A   3      -0.834  21.039  29.384  0.00  0.00    +0.149 C 
BRANCH  44  46
ATOM     45  C   PRO A   2       0.653  19.168  28.815  0.00  0.00    +0.241 C 
ATOM     46  N   VAL A   3      -0.463  19.620  29.405  0.00  0.00    -0.297 N 
ATOM     47  H   VAL A   3      -1.085  18.944  29.893  0.00  0.00    +0.150 HD
ATOM     48  O   PRO A   2       1.528  19.907  28.394  0.00  0.00    -0.273 OA
BRANCH  45  55
ATOM     49  C   THR A   1       0.525  16.945  30.926  0.00  0.00    +0.244 C 
ATOM     50  O   THR A   1       1.519  17.582  31.244  0.00  0.00    -0.273 OA
ATOM     51  N   PRO A   2       0.069  16.843  29.665  0.00  0.00    -0.272 N 
ATOM     52  CD  PRO A   2      -1.095  16.053  29.195  0.00  0.00    +0.094 C 
ATOM     53  CG  PRO A   2      -1.010  16.064  27.682  0.00  0.00    +0.024 C 
ATOM     54  CB  PRO A   2      -0.157  17.301  27.349  0.00  0.00    +0.031 C 
ATOM     55  CA  PRO A   2       0.702  17.638  28.594  0.00  0.00    +0.152 C 
BRANCH  49  56
ATOM     56  CA  THR A   1      -0.321  16.226  31.953  0.00  0.00    +0.172 C 
BRANCH  56  57
ATOM     57  N   THR A   1       0.580  15.730  32.961  0.00  0.00    -0.236 NA
ATOM     58  H   THR A   1       0.931  16.384  33.690  0.00  0.00    +0.142 HD
ENDBRANCH  56  57
BRANCH  56  59
ATOM     59  CB  THR A   1      -1.344  17.139  32.677  0.00  0.00    +0.135 C 
ATOM     60  CG2 THR A   1      -0.665  18.185  33.503  0.00  0.00    +0.034 C 
BRANCH  59  61
ATOM     61  OG1 THR A   1      -2.200  17.813  31.773  0.00  0.00    -0.383 OA
ATOM     62  HG1 THR A   1      -1.659  18.379  31.168  0.00  0.00    +0.210 HD
ENDBRANCH  59  61
ENDBRANCH  56  59
ENDBRANCH  49  56
ENDBRANCH  45  55
ENDBRANCH  44  46
BRANCH  44  63
ATOM     63  CB  VAL A   3      -1.655  21.319  28.103  0.00  0.00    +0.027 C 
ATOM     64  CG2 VAL A   3      -2.909  20.441  27.990  0.00  0.00    +0.002 C 
ATOM     65  CG1 VAL A   3      -1.998  22.794  27.987  0.00  0.00    +0.002 C 
ENDBRANCH  44  63
ENDBRANCH  40  44
ENDBRANCH  39  41
BRANCH  39  66
ATOM     66  CB  ASN A   4      -1.387  23.784  33.371  0.00  0.00    +0.114 C 
BRANCH  66  67
ATOM     67  CG  ASN A   4       0.145  23.800  33.517  0.00  0.00    +0.222 C 
ATOM     68  OD1 ASN A   4       0.811  22.894  33.972  0.00  0.00    -0.275 OA
ATOM     69  ND2 ASN A   4       0.695  24.928  33.190  0.00  0.00    -0.329 N 
ATOM     70 HD21 ASN A   4       1.718  25.064  33.317  0.00  0.00    +0.145 HD
ATOM     71 HD22 ASN A   4       0.113  25.697  32.801  0.00  0.00    +0.145 HD
ENDBRANCH  66  67
ENDBRANCH  39  66
ENDBRANCH  35  39
ENDBRANCH   1  36
BRANCH   1  72
ATOM     72  CB  ILE A   5      -6.250  21.348  32.340  0.00  0.00    +0.027 C 
ATOM     73  CG2 ILE A   5      -7.741  21.036  32.477  0.00  0.00    +0.002 C 
BRANCH  72  74
ATOM     74  CG1 ILE A   5      -5.730  20.892  30.974  0.00  0.00    +0.002 C 
ATOM     75  CD1 ILE A   5      -5.656  19.392  30.856  0.00  0.00    +0.000 C 
ENDBRANCH  72  74
ENDBRANCH   1  72
TORSDOF 28
REMARK  Name = ../refined-set-2016/1dmp/1dmp_pocket.pdb
REMARK  210 active torsions:
REMARK  status: ('A' for Active; 'I' for Inactive)
REMARK    1  A    between atoms: _1  and  _3
REMARK    2  A    between atoms: _3  and  _4
REMARK    3  A    between atoms: _3  and  _6
REMARK    4  A    between atoms: _6  and  _7
REMARK    5  A    between atoms: _7  and  _8
REMARK    6  A    between atoms: _8  and  _9
REMARK    7  A    between atoms: _18  and  _20
REMARK    8  A    between atoms: _20  and  _21
REMARK    9  A    between atoms: _20  and  _23
REMARK   10  A    between atoms: _23  and  _24
REMARK   11  A    between atoms: _27  and  _29
REMARK   12  A    between atoms: _29  and  _30
REMARK   13  A    between atoms: _29  and  _32
REMARK   14  A    between atoms: _32  and  _33
REMARK   15  A    between atoms: _36  and  _38
REMARK   16  A    between atoms: _38  and  _39
REMARK   17  A    between atoms: _38  and  _41
REMARK   18  A    between atoms: _41  and  _42
REMARK   19  A    between atoms: _45  and  _47
REMARK   20  A    between atoms: _47  and  _48
REMARK   21  A    between atoms: _47  and  _50
REMARK   22  A    between atoms: _50  and  _51
REMARK   23  A    between atoms: _54  and  _56
REMARK   24  A    between atoms: _56  and  _57
REMARK   25  A    between atoms: _59  and  _61
REMARK   26  A    between atoms: _61  and  _62
REMARK   27  A    between atoms: _65  and  _67
REMARK   28  A    between atoms: _67  and  _68
REMARK   29  A    between atoms: _67  and  _70
REMARK   30  A    between atoms: _70  and  _71
REMARK   31  A    between atoms: _74  and  _76
REMARK   32  A    between atoms: _76  and  _77
REMARK   33  A    between atoms: _76  and  _79
REMARK   34  A    between atoms: _79  and  _80
REMARK   35  A    between atoms: _83  and  _85
REMARK   36  A    between atoms: _85  and  _86
REMARK   37  A    between atoms: _85  and  _88
REMARK   38  A    between atoms: _88  and  _89
REMARK   39  A    between atoms: _92  and  _94
REMARK   40  A    between atoms: _94  and  _95
REMARK   41  A    between atoms: _94  and  _97
REMARK   42  A    between atoms: _100  and  _102
REMARK   43  A    between atoms: _102  and  _103
REMARK   44  A    between atoms: _102  and  _105
REMARK   45  A    between atoms: _105  and  _106
REMARK   46  A    between atoms: _109  and  _111
REMARK   47  A    between atoms: _111  and  _112
REMARK   48  A    between atoms: _111  and  _114
REMARK   49  A    between atoms: _114  and  _115
REMARK   50  A    between atoms: _115  and  _116
REMARK   51  A    between atoms: _116  and  _117
REMARK   52  A    between atoms: _117  and  _118
REMARK   53  A    between atoms: _122  and  _124
REMARK   54  A    between atoms: _124  and  _125
REMARK   55  A    between atoms: _124  and  _127
REMARK   56  A    between atoms: _127  and  _128
REMARK   57  A    between atoms: _128  and  _129
REMARK   58  A    between atoms: _131  and  _133
REMARK   59  A    between atoms: _133  and  _134
REMARK   60  A    between atoms: _133  and  _136
REMARK   61  A    between atoms: _136  and  _137
REMARK   62  A    between atoms: _140  and  _142
REMARK   63  A    between atoms: _142  and  _143
REMARK   64  A    between atoms: _145  and  _147
REMARK   65  A    between atoms: _147  and  _148
REMARK   66  A    between atoms: _150  and  _152
REMARK   67  A    between atoms: _152  and  _153
REMARK   68  A    between atoms: _152  and  _155
REMARK   69  A    between atoms: _155  and  _156
REMARK   70  A    between atoms: _159  and  _161
REMARK   71  A    between atoms: _161  and  _162
REMARK   72  A    between atoms: _164  and  _166
REMARK   73  A    between atoms: _166  and  _167
REMARK   74  A    between atoms: _169  and  _171
REMARK   75  A    between atoms: _171  and  _172
REMARK   76  A    between atoms: _171  and  _174
REMARK   77  A    between atoms: _174  and  _175
REMARK   78  A    between atoms: _178  and  _180
REMARK   79  A    between atoms: _180  and  _181
REMARK   80  A    between atoms: _180  and  _183
REMARK   81  A    between atoms: _183  and  _184
REMARK   82  A    between atoms: _187  and  _189
REMARK   83  A    between atoms: _189  and  _190
REMARK   84  A    between atoms: _189  and  _192
REMARK   85  A    between atoms: _192  and  _193
REMARK   86  A    between atoms: _197  and  _198
REMARK   87  A    between atoms: _203  and  _205
REMARK   88  A    between atoms: _205  and  _206
REMARK   89  A    between atoms: _205  and  _208
REMARK   90  A    between atoms: _211  and  _213
REMARK   91  A    between atoms: _213  and  _214
REMARK   92  A    between atoms: _213  and  _216
REMARK   93  A    between atoms: _216  and  _217
REMARK   94  A    between atoms: _222  and  _224
REMARK   95  A    between atoms: _224  and  _225
REMARK   96  A    between atoms: _224  and  _227
REMARK   97  A    between atoms: _227  and  _228
REMARK   98  A    between atoms: _231  and  _233
REMARK   99  A    between atoms: _233  and  _234
REMARK  100  A    between atoms: _233  and  _236
REMARK  101  A    between atoms: _236  and  _237
REMARK  102  A    between atoms: _240  and  _242
REMARK  103  A    between atoms: _242  and  _243
REMARK  104  A    between atoms: _245  and  _247
REMARK  105  A    between atoms: _247  and  _248
REMARK  106  A    between atoms: _247  and  _250
REMARK  107  A    between atoms: _250  and  _251
REMARK  108  A    between atoms: _251  and  _252
REMARK  109  A    between atoms: _252  and  _253
REMARK  110  A    between atoms: _262  and  _264
REMARK  111  A    between atoms: _264  and  _265
REMARK  112  A    between atoms: _264  and  _267
REMARK  113  A    between atoms: _267  and  _268
REMARK  114  A    between atoms: _268  and  _269
REMARK  115  A    between atoms: _269  and  _270
REMARK  116  A    between atoms: _279  and  _281
REMARK  117  A    between atoms: _281  and  _282
REMARK  118  A    between atoms: _281  and  _284
REMARK  119  A    between atoms: _284  and  _285
REMARK  120  A    between atoms: _288  and  _290
REMARK  121  A    between atoms: _290  and  _291
REMARK  122  A    between atoms: _290  and  _293
REMARK  123  A    between atoms: _293  and  _294
REMARK  124  A    between atoms: _297  and  _299
REMARK  125  A    between atoms: _299  and  _300
REMARK  126  A    between atoms: _299  and  _302
REMARK  127  A    between atoms: _302  and  _303
REMARK  128  A    between atoms: _306  and  _308
REMARK  129  A    between atoms: _308  and  _309
REMARK  130  A    between atoms: _308  and  _311
REMARK  131  A    between atoms: _311  and  _312
REMARK  132  A    between atoms: _315  and  _317
REMARK  133  A    between atoms: _317  and  _318
REMARK  134  A    between atoms: _320  and  _322
REMARK  135  A    between atoms: _322  and  _323
REMARK  136  A    between atoms: _326  and  _328
REMARK  137  A    between atoms: _328  and  _329
REMARK  138  A    between atoms: _328  and  _331
REMARK  139  A    between atoms: _331  and  _332
REMARK  140  A    between atoms: _335  and  _337
REMARK  141  A    between atoms: _337  and  _338
REMARK  142  A    between atoms: _337  and  _340
REMARK  143  A    between atoms: _340  and  _341
REMARK  144  A    between atoms: _344  and  _346
REMARK  145  A    between atoms: _346  and  _347
REMARK  146  A    between atoms: _346  and  _349
REMARK  147  A    between atoms: _349  and  _350
REMARK  148  A    between atoms: _353  and  _355
REMARK  149  A    between atoms: _355  and  _356
REMARK  150  A    between atoms: _355  and  _358
REMARK  151  A    between atoms: _361  and  _363
REMARK  152  A    between atoms: _363  and  _364
REMARK  153  A    between atoms: _363  and  _366
REMARK  154  A    between atoms: _366  and  _367
REMARK  155  A    between atoms: _370  and  _372
REMARK  156  A    between atoms: _372  and  _373
REMARK  157  A    between atoms: _372  and  _375
REMARK  158  A    between atoms: _375  and  _376
REMARK  159  A    between atoms: _379  and  _381
REMARK  160  A    between atoms: _381  and  _382
REMARK  161  A    between atoms: _384  and  _386
REMARK  162  A    between atoms: _386  and  _387
REMARK  163  A    between atoms: _389  and  _391
REMARK  164  A    between atoms: _391  and  _392
REMARK  165  A    between atoms: _391  and  _394
REMARK  166  A    between atoms: _394  and  _395
REMARK  167  A    between atoms: _398  and  _400
REMARK  168  A    between atoms: _400  and  _401
REMARK  169  A    between atoms: _403  and  _405
REMARK  170  A    between atoms: _405  and  _406
REMARK  171  A    between atoms: _408  and  _410
REMARK  172  A    between atoms: _410  and  _411
REMARK  173  A    between atoms: _410  and  _413
REMARK  174  A    between atoms: _413  and  _414
REMARK  175  A    between atoms: _417  and  _419
REMARK  176  A    between atoms: _419  and  _420
REMARK  177  A    between atoms: _419  and  _422
REMARK  178  A    between atoms: _422  and  _423
REMARK  179  A    between atoms: _426  and  _428
REMARK  180  A    between atoms: _428  and  _429
REMARK  181  A    between atoms: _428  and  _431
REMARK  182  A    between atoms: _431  and  _432
REMARK  183  A    between atoms: _436  and  _437
REMARK  184  A    between atoms: _442  and  _444
REMARK  185  A    between atoms: _444  and  _445
REMARK  186  A    between atoms: _444  and  _447
REMARK  187  A    between atoms: _450  and  _452
REMARK  188  A    between atoms: _452  and  _453
REMARK  189  A    between atoms: _452  and  _455
REMARK  190  A    between atoms: _455  and  _456
REMARK  191  A    between atoms: _461  and  _463
REMARK  192  A    between atoms: _463  and  _464
REMARK  193  A    between atoms: _463  and  _466
REMARK  194  A    between atoms: _466  and  _467
REMARK  195  A    between atoms: _470  and  _472
REMARK  196  A    between atoms: _472  and  _473
REMARK  197  A    between atoms: _472  and  _475
REMARK  198  A    between atoms: _475  and  _476
REMARK  199  A    between atoms: _479  and  _481
REMARK  200  A    between atoms: _481  and  _482
REMARK  201  A    between atoms: _484  and  _486
REMARK  202  A    between atoms: _486  and  _487
REMARK  203  A    between atoms: _486  and  _489
REMARK  204  A    between atoms: _489  and  _490
REMARK  205  A    between atoms: _490  and  _491
REMARK  206  A    between atoms: _491  and  _492
REMARK  207  A    between atoms: _501  and  _503
REMARK  208  A    between atoms: _503  and  _504
REMARK  209  A    between atoms: _503  and  _506
REMARK  210  A    between atoms: _506  and  _507
REMARK                            x       y       z     vdW  Elec       q    Type
REMARK                         _______ _______ _______ _____ _____    ______ ____
ROOT
ATOM      1  NE  ARG A   1     -18.126  15.732  32.565  0.00  0.00    -0.265 N 
ATOM      2  HE  ARG A   1     -17.431  16.497  32.676  0.00  0.00    +0.259 HD
ATOM      3  CZ  ARG A   1     -17.668  14.473  32.352  0.00  0.00    +0.342 C 
ATOM      4  NH2 ARG A   1     -16.357  14.238  32.384  0.00  0.00    -0.292 N 
ATOM      5 HH21 ARG A   1     -15.694  15.017  32.571  0.00  0.00    +0.255 HD
ATOM      6 HH22 ARG A   1     -15.997  13.276  32.222  0.00  0.00    +0.255 HD
ATOM      7  NH1 ARG A   1     -18.477  13.440  32.131  0.00  0.00    -0.292 N 
ATOM      8 HH11 ARG A   1     -19.507  13.580  32.117  0.00  0.00    +0.255 HD
ATOM      9 HH12 ARG A   1     -18.079  12.492  31.973  0.00  0.00    +0.255 HD
ENDROOT
BRANCH   1  10
ATOM     10  CD  ARG A   1     -19.577  16.076  32.648  0.00  0.00    +0.174 C 
BRANCH  10  11
ATOM     11  CG  ARG A   1     -19.801  17.498  33.197  0.00  0.00    +0.045 C 
BRANCH  11  12
ATOM     12  CB  ARG A   1     -20.999  18.227  32.574  0.00  0.00    +0.029 C 
BRANCH  12  13
ATOM     13  CA  ARG A   1     -21.120  19.732  32.924  0.00  0.00    +0.133 C 
BRANCH  13  14
ATOM     14  N   ARG A   1     -21.616  19.878  34.322  0.00  0.00    -0.239 NA
ATOM     15  H   ARG A   1     -21.802  19.021  34.881  0.00  0.00    +0.142 HD
ENDBRANCH  13  14
BRANCH  13  16
ATOM     16  C   ARG A   1     -21.937  20.407  31.822  0.00  0.00    +0.224 C 
ATOM     17  O   ARG A   1     -23.129  20.169  31.714  0.00  0.00    -0.287 OA
ENDBRANCH  13  16
ENDBRANCH  12  13
ENDBRANCH  11  12
ENDBRANCH  10  11
ENDBRANCH   1  10
TORSDOF 6
REMARK  Name = ../refined-set-2016/1dmp/1dmp_pocket.pdb
REMARK  210 active torsions:
REMARK  status: ('A' for Active; 'I' for Inactive)
REMARK    1  A    between atoms: _1  and  _3
REMARK    2  A    between atoms: _3  and  _4
REMARK    3  A    between atoms: _3  and  _6
REMARK    4  A    between atoms: _6  and  _7
REMARK    5  A    between atoms: _7  and  _8
REMARK    6  A    between atoms: _8  and  _9
REMARK    7  A    between atoms: _18  and  _20
REMARK    8  A    between atoms: _20  and  _21
REMARK    9  A    between atoms: _20  and  _23
REMARK   10  A    between atoms: _23  and  _24
REMARK   11  A    between atoms: _27  and  _29
REMARK   12  A    between atoms: _29  and  _30
REMARK   13  A    between atoms: _29  and  _32
REMARK   14  A    between atoms: _32  and  _33
REMARK   15  A    between atoms: _36  and  _38
REMARK   16  A    between atoms: _38  and  _39
REMARK   17  A    between atoms: _38  and  _41
REMARK   18  A    between atoms: _41  and  _42
REMARK   19  A    between atoms: _45  and  _47
REMARK   20  A    between atoms: _47  and  _48
REMARK   21  A    between atoms: _47  and  _50
REMARK   22  A    between atoms: _50  and  _51
REMARK   23  A    between atoms: _54  and  _56
REMARK   24  A    between atoms: _56  and  _57
REMARK   25  A    between atoms: _59  and  _61
REMARK   26  A    between atoms: _61  and  _62
REMARK   27  A    between atoms: _65  and  _67
REMARK   28  A    between atoms: _67  and  _68
REMARK   29  A    between atoms: _67  and  _70
REMARK   30  A    between atoms: _70  and  _71
REMARK   31  A    between atoms: _74  and  _76
REMARK   32  A    between atoms: _76  and  _77
REMARK   33  A    between atoms: _76  and  _79
REMARK   34  A    between atoms: _79  and  _80
REMARK   35  A    between atoms: _83  and  _85
REMARK   36  A    between atoms: _85  and  _86
REMARK   37  A    between atoms: _85  and  _88
REMARK   38  A    between atoms: _88  and  _89
REMARK   39  A    between atoms: _92  and  _94
REMARK   40  A    between atoms: _94  and  _95
REMARK   41  A    between atoms: _94  and  _97
REMARK   42  A    between atoms: _100  and  _102
REMARK   43  A    between atoms: _102  and  _103
REMARK   44  A    between atoms: _102  and  _105
REMARK   45  A    between atoms: _105  and  _106
REMARK   46  A    between atoms: _109  and  _111
REMARK   47  A    between atoms: _111  and  _112
REMARK   48  A    between atoms: _111  and  _114
REMARK   49  A    between atoms: _114  and  _115
REMARK   50  A    between atoms: _115  and  _116
REMARK   51  A    between atoms: _116  and  _117
REMARK   52  A    between atoms: _117  and  _118
REMARK   53  A    between atoms: _122  and  _124
REMARK   54  A    between atoms: _124  and  _125
REMARK   55  A    between atoms: _124  and  _127
REMARK   56  A    between atoms: _127  and  _128
REMARK   57  A    between atoms: _128  and  _129
REMARK   58  A    between atoms: _131  and  _133
REMARK   59  A    between atoms: _133  and  _134
REMARK   60  A    between atoms: _133  and  _136
REMARK   61  A    between atoms: _136  and  _137
REMARK   62  A    between atoms: _140  and  _142
REMARK   63  A    between atoms: _142  and  _143
REMARK   64  A    between atoms: _145  and  _147
REMARK   65  A    between atoms: _147  and  _148
REMARK   66  A    between atoms: _150  and  _152
REMARK   67  A    between atoms: _152  and  _153
REMARK   68  A    between atoms: _152  and  _155
REMARK   69  A    between atoms: _155  and  _156
REMARK   70  A    between atoms: _159  and  _161
REMARK   71  A    between atoms: _161  and  _162
REMARK   72  A    between atoms: _164  and  _166
REMARK   73  A    between atoms: _166  and  _167
REMARK   74  A    between atoms: _169  and  _171
REMARK   75  A    between atoms: _171  and  _172
REMARK   76  A    between atoms: _171  and  _174
REMARK   77  A    between atoms: _174  and  _175
REMARK   78  A    between atoms: _178  and  _180
REMARK   79  A    between atoms: _180  and  _181
REMARK   80  A    between atoms: _180  and  _183
REMARK   81  A    between atoms: _183  and  _184
REMARK   82  A    between atoms: _187  and  _189
REMARK   83  A    between atoms: _189  and  _190
REMARK   84  A    between atoms: _189  and  _192
REMARK   85  A    between atoms: _192  and  _193
REMARK   86  A    between atoms: _197  and  _198
REMARK   87  A    between atoms: _203  and  _205
REMARK   88  A    between atoms: _205  and  _206
REMARK   89  A    between atoms: _205  and  _208
REMARK   90  A    between atoms: _211  and  _213
REMARK   91  A    between atoms: _213  and  _214
REMARK   92  A    between atoms: _213  and  _216
REMARK   93  A    between atoms: _216  and  _217
REMARK   94  A    between atoms: _222  and  _224
REMARK   95  A    between atoms: _224  and  _225
REMARK   96  A    between atoms: _224  and  _227
REMARK   97  A    between atoms: _227  and  _228
REMARK   98  A    between atoms: _231  and  _233
REMARK   99  A    between atoms: _233  and  _234
REMARK  100  A    between atoms: _233  and  _236
REMARK  101  A    between atoms: _236  and  _237
REMARK  102  A    between atoms: _240  and  _242
REMARK  103  A    between atoms: _242  and  _243
REMARK  104  A    between atoms: _245  and  _247
REMARK  105  A    between atoms: _247  and  _248
REMARK  106  A    between atoms: _247  and  _250
REMARK  107  A    between atoms: _250  and  _251
REMARK  108  A    between atoms: _251  and  _252
REMARK  109  A    between atoms: _252  and  _253
REMARK  110  A    between atoms: _262  and  _264
REMARK  111  A    between atoms: _264  and  _265
REMARK  112  A    between atoms: _264  and  _267
REMARK  113  A    between atoms: _267  and  _268
REMARK  114  A    between atoms: _268  and  _269
REMARK  115  A    between atoms: _269  and  _270
REMARK  116  A    between atoms: _279  and  _281
REMARK  117  A    between atoms: _281  and  _282
REMARK  118  A    between atoms: _281  and  _284
REMARK  119  A    between atoms: _284  and  _285
REMARK  120  A    between atoms: _288  and  _290
REMARK  121  A    between atoms: _290  and  _291
REMARK  122  A    between atoms: _290  and  _293
REMARK  123  A    between atoms: _293  and  _294
REMARK  124  A    between atoms: _297  and  _299
REMARK  125  A    between atoms: _299  and  _300
REMARK  126  A    between atoms: _299  and  _302
REMARK  127  A    between atoms: _302  and  _303
REMARK  128  A    between atoms: _306  and  _308
REMARK  129  A    between atoms: _308  and  _309
REMARK  130  A    between atoms: _308  and  _311
REMARK  131  A    between atoms: _311  and  _312
REMARK  132  A    between atoms: _315  and  _317
REMARK  133  A    between atoms: _317  and  _318
REMARK  134  A    between atoms: _320  and  _322
REMARK  135  A    between atoms: _322  and  _323
REMARK  136  A    between atoms: _326  and  _328
REMARK  137  A    between atoms: _328  and  _329
REMARK  138  A    between atoms: _328  and  _331
REMARK  139  A    between atoms: _331  and  _332
REMARK  140  A    between atoms: _335  and  _337
REMARK  141  A    between atoms: _337  and  _338
REMARK  142  A    between atoms: _337  and  _340
REMARK  143  A    between atoms: _340  and  _341
REMARK  144  A    between atoms: _344  and  _346
REMARK  145  A    between atoms: _346  and  _347
REMARK  146  A    between atoms: _346  and  _349
REMARK  147  A    between atoms: _349  and  _350
REMARK  148  A    between atoms: _353  and  _355
REMARK  149  A    between atoms: _355  and  _356
REMARK  150  A    between atoms: _355  and  _358
REMARK  151  A    between atoms: _361  and  _363
REMARK  152  A    between atoms: _363  and  _364
REMARK  153  A    between atoms: _363  and  _366
REMARK  154  A    between atoms: _366  and  _367
REMARK  155  A    between atoms: _370  and  _372
REMARK  156  A    between atoms: _372  and  _373
REMARK  157  A    between atoms: _372  and  _375
REMARK  158  A    between atoms: _375  and  _376
REMARK  159  A    between atoms: _379  and  _381
REMARK  160  A    between atoms: _381  and  _382
REMARK  161  A    between atoms: _384  and  _386
REMARK  162  A    between atoms: _386  and  _387
REMARK  163  A    between atoms: _389  and  _391
REMARK  164  A    between atoms: _391  and  _392
REMARK  165  A    between atoms: _391  and  _394
REMARK  166  A    between atoms: _394  and  _395
REMARK  167  A    between atoms: _398  and  _400
REMARK  168  A    between atoms: _400  and  _401
REMARK  169  A    between atoms: _403  and  _405
REMARK  170  A    between atoms: _405  and  _406
REMARK  171  A    between atoms: _408  and  _410
REMARK  172  A    between atoms: _410  and  _411
REMARK  173  A    between atoms: _410  and  _413
REMARK  174  A    between atoms: _413  and  _414
REMARK  175  A    between atoms: _417  and  _419
REMARK  176  A    between atoms: _419  and  _420
REMARK  177  A    between atoms: _419  and  _422
REMARK  178  A    between atoms: _422  and  _423
REMARK  179  A    between atoms: _426  and  _428
REMARK  180  A    between atoms: _428  and  _429
REMARK  181  A    between atoms: _428  and  _431
REMARK  182  A    between atoms: _431  and  _432
REMARK  183  A    between atoms: _436  and  _437
REMARK  184  A    between atoms: _442  and  _444
REMARK  185  A    between atoms: _444  and  _445
REMARK  186  A    between atoms: _444  and  _447
REMARK  187  A    between atoms: _450  and  _452
REMARK  188  A    between atoms: _452  and  _453
REMARK  189  A    between atoms: _452  and  _455
REMARK  190  A    between atoms: _455  and  _456
REMARK  191  A    between atoms: _461  and  _463
REMARK  192  A    between atoms: _463  and  _464
REMARK  193  A    between atoms: _463  and  _466
REMARK  194  A    between atoms: _466  and  _467
REMARK  195  A    between atoms: _470  and  _472
REMARK  196  A    between atoms: _472  and  _473
REMARK  197  A    between atoms: _472  and  _475
REMARK  198  A    between atoms: _475  and  _476
REMARK  199  A    between atoms: _479  and  _481
REMARK  200  A    between atoms: _481  and  _482
REMARK  201  A    between atoms: _484  and  _486
REMARK  202  A    between atoms: _486  and  _487
REMARK  203  A    between atoms: _486  and  _489
REMARK  204  A    between atoms: _489  and  _490
REMARK  205  A    between atoms: _490  and  _491
REMARK  206  A    between atoms: _491  and  _492
REMARK  207  A    between atoms: _501  and  _503
REMARK  208  A    between atoms: _503  and  _504
REMARK  209  A    between atoms: _503  and  _506
REMARK  210  A    between atoms: _506  and  _507
REMARK                            x       y       z     vdW  Elec       q    Type
REMARK                         _______ _______ _______ _____ _____    ______ ____
ROOT
ATOM      1  C   ALA A   6     -10.225  21.301  21.808  0.00  0.00    +0.241 C 
ATOM      2  O   ALA A   6     -11.056  22.155  21.570  0.00  0.00    -0.273 OA
ATOM      3  N   ASP A   7      -9.284  20.958  20.983  0.00  0.00    -0.297 N 
ATOM      4  H   ASP A   7      -8.588  20.214  21.192  0.00  0.00    +0.150 HD
ENDROOT
BRANCH   1   5
ATOM      5  CA  ALA A   6     -10.233  20.587  23.070  0.00  0.00    +0.149 C 
ATOM      6  CB  ALA A   6     -11.446  19.728  22.926  0.00  0.00    +0.031 C 
BRANCH   5   9
ATOM      7  C   GLY A   5      -9.508  21.969  24.935  0.00  0.00    +0.243 C 
ATOM      8  O   GLY A   5      -8.389  21.496  24.917  0.00  0.00    -0.273 OA
ATOM      9  N   ALA A   6     -10.440  21.631  24.066  0.00  0.00    -0.297 N 
ATOM     10  H   ALA A   6     -11.354  22.126  24.092  0.00  0.00    +0.150 HD
BRANCH   7  11
ATOM     11  CA  GLY A   5      -9.956  22.904  25.981  0.00  0.00    +0.176 C 
BRANCH  11  13
ATOM     12  C   THR A   4     -11.618  24.403  25.330  0.00  0.00    +0.243 C 
ATOM     13  N   GLY A   5     -11.350  23.255  25.878  0.00  0.00    -0.295 N 
ATOM     14  H   GLY A   5     -12.101  22.624  26.223  0.00  0.00    +0.150 HD
ATOM     15  O   THR A   4     -10.775  25.061  24.766  0.00  0.00    -0.273 OA
BRANCH  12  16
ATOM     16  CA  THR A   4     -13.043  24.831  25.487  0.00  0.00    +0.176 C 
BRANCH  16  18
ATOM     17  C   ASP A   3     -14.280  22.815  25.208  0.00  0.00    +0.241 C 
ATOM     18  N   THR A   4     -13.930  23.800  26.007  0.00  0.00    -0.295 N 
ATOM     19  H   THR A   4     -14.278  23.841  26.986  0.00  0.00    +0.150 HD
ATOM     20  O   ASP A   3     -13.784  22.694  24.106  0.00  0.00    -0.273 OA
BRANCH  17  21
ATOM     21  CA  ASP A   3     -15.276  21.812  25.725  0.00  0.00    +0.160 C 
BRANCH  21  24
ATOM     22  C   LEU A   2     -17.575  22.033  25.838  0.00  0.00    +0.241 C 
ATOM     23  O   LEU A   2     -17.475  22.355  27.010  0.00  0.00    -0.273 OA
ATOM     24  N   ASP A   3     -16.538  21.921  25.060  0.00  0.00    -0.297 N 
ATOM     25  H   ASP A   3     -16.621  21.911  24.023  0.00  0.00    +0.150 HD
BRANCH  22  26
ATOM     26  CA  LEU A   2     -18.903  21.719  25.196  0.00  0.00    +0.149 C 
BRANCH  26  28
ATOM     27  C   LEU A   1     -19.320  19.416  25.344  0.00  0.00    +0.238 C 
ATOM     28  N   LEU A   2     -19.572  20.615  25.868  0.00  0.00    -0.297 N 
ATOM     29  H   LEU A   2     -20.195  20.751  26.689  0.00  0.00    +0.150 HD
ATOM     30  O   LEU A   1     -18.734  19.274  24.279  0.00  0.00    -0.274 OA
BRANCH  27  31
ATOM     31  CA  LEU A   1     -19.781  18.182  26.095  0.00  0.00    +0.145 C 
BRANCH  31  32
ATOM     32  N   LEU A   1     -20.227  17.219  25.096  0.00  0.00    -0.238 NA
ATOM     33  H   LEU A   1     -19.551  16.577  24.635  0.00  0.00    +0.142 HD
ENDBRANCH  31  32
BRANCH  31  34
ATOM     34  CB  LEU A   1     -18.656  17.466  26.883  0.00  0.00    +0.026 C 
BRANCH  34  35
ATOM     35  CG  LEU A   1     -18.141  17.973  28.243  0.00  0.00    +0.002 C 
ATOM     36  CD2 LEU A   1     -19.167  17.925  29.345  0.00  0.00    +0.000 C 
ATOM     37  CD1 LEU A   1     -16.951  17.134  28.630  0.00  0.00    +0.000 C 
ENDBRANCH  34  35
ENDBRANCH  31  34
ENDBRANCH  27  31
ENDBRANCH  26  28
BRANCH  26  38
ATOM     38  CB  LEU A   2     -19.713  22.991  25.271  0.00  0.00    +0.029 C 
BRANCH  38  39
ATOM     39  CG  LEU A   2     -21.164  22.829  24.891  0.00  0.00    +0.002 C 
ATOM     40  CD2 LEU A   2     -21.962  23.755  25.802  0.00  0.00    +0.000 C 
ATOM     41  CD1 LEU A   2     -21.405  23.155  23.408  0.00  0.00    +0.000 C 
ENDBRANCH  38  39
ENDBRANCH  26  38
ENDBRANCH  22  26
ENDBRANCH  21  24
BRANCH  21  42
ATOM     42  CB  ASP A   3     -14.940  20.391  25.351  0.00  0.00    +0.143 C 
BRANCH  42  43
ATOM     43  CG  ASP A   3     -13.689  19.860  25.935  0.00  0.00    +0.367 C 
ATOM     44  OD2 ASP A   3     -12.940  20.590  26.561  0.00  0.00    -0.246 OA
ATOM     45  OD1 ASP A   3     -13.472  18.683  25.740  0.00  0.00    -0.246 OA
ENDBRANCH  42  43
ENDBRANCH  21  42
ENDBRANCH  17  21
ENDBRANCH  16  18
BRANCH  16  46
ATOM     46  CB  THR A   4     -13.197  26.101  26.355  0.00  0.00    +0.137 C 
ATOM     47  CG2 THR A   4     -14.632  26.621  26.227  0.00  0.00    +0.034 C 
BRANCH  46  48
ATOM     48  OG1 THR A   4     -13.011  25.864  27.756  0.00  0.00    -0.382 OA
ATOM     49  HG1 THR A   4     -12.100  25.508  27.911  0.00  0.00    +0.210 HD
ENDBRANCH  46  48
ENDBRANCH  16  46
ENDBRANCH  12  16
ENDBRANCH  11  13
ENDBRANCH   7  11
ENDBRANCH   5   9
ENDBRANCH   1   5
BRANCH   3  50
ATOM     50  CA  ASP A   7      -9.295  21.710  19.742  0.00  0.00    +0.160 C 
BRANCH  50  51
ATOM     51  C   ASP A   7     -10.020  21.011  18.677  0.00  0.00    +0.241 C 
ATOM     52  N   ASP A   8     -10.476  19.792  18.946  0.00  0.00    -0.297 N 
ATOM     53  H   ASP A   8     -10.362  19.404  19.904  0.00  0.00    +0.150 HD
ATOM     54  O   ASP A   7     -10.116  21.554  17.608  0.00  0.00    -0.273 OA
BRANCH  52  55
ATOM     55  CA  ASP A   8     -11.136  18.986  17.918  0.00  0.00    +0.160 C 
BRANCH  55  56
ATOM     56  C   ASP A   8     -12.378  18.399  18.553  0.00  0.00    +0.241 C 
ATOM     57  O   ASP A   8     -12.513  18.379  19.767  0.00  0.00    -0.273 OA
ATOM     58  N   THR A   9     -13.271  17.926  17.708  0.00  0.00    -0.295 N 
ATOM     59  H   THR A   9     -13.106  17.974  16.682  0.00  0.00    +0.150 HD
BRANCH  58  60
ATOM     60  CA  THR A   9     -14.509  17.327  18.240  0.00  0.00    +0.176 C 
BRANCH  60  61
ATOM     61  C   THR A   9     -14.322  15.820  18.224  0.00  0.00    +0.243 C 
ATOM     62  N   VAL A  10     -14.654  15.152  19.311  0.00  0.00    -0.297 N 
ATOM     63  H   VAL A  10     -15.061  15.628  20.142  0.00  0.00    +0.150 HD
ATOM     64  O   THR A   9     -13.848  15.275  17.238  0.00  0.00    -0.273 OA
BRANCH  62  65
ATOM     65  CA  VAL A  10     -14.423  13.717  19.290  0.00  0.00    +0.149 C 
BRANCH  65  66
ATOM     66  C   VAL A  10     -15.608  12.948  19.818  0.00  0.00    +0.241 C 
ATOM     67  O   VAL A  10     -16.033  13.142  20.939  0.00  0.00    -0.273 OA
ATOM     68  N   LEU A  11     -16.146  12.077  19.000  0.00  0.00    -0.298 N 
ATOM     69  H   LEU A  11     -15.644  11.765  18.144  0.00  0.00    +0.150 HD
BRANCH  68  70
ATOM     70  CA  LEU A  11     -17.445  11.567  19.318  0.00  0.00    +0.137 C 
BRANCH  70  71
ATOM     71  C   LEU A  11     -17.247  10.114  19.450  0.00  0.00    +0.227 C 
ATOM     72  O   LEU A  11     -16.431   9.590  18.713  0.00  0.00    -0.286 OA
ENDBRANCH  70  71
BRANCH  70  73
ATOM     73  CB  LEU A  11     -18.336  11.873  18.113  0.00  0.00    +0.028 C 
BRANCH  73  74
ATOM     74  CG  LEU A  11     -19.351  12.982  18.263  0.00  0.00    +0.002 C 
ATOM     75  CD2 LEU A  11     -18.877  14.185  19.038  0.00  0.00    +0.000 C 
ATOM     76  CD1 LEU A  11     -19.600  13.415  16.866  0.00  0.00    +0.000 C 
ENDBRANCH  73  74
ENDBRANCH  70  73
ENDBRANCH  68  70
ENDBRANCH  65  66
BRANCH  65  77
ATOM     77  CB  VAL A  10     -13.236  13.390  20.173  0.00  0.00    +0.027 C 
ATOM     78  CG2 VAL A  10     -12.960  11.879  20.141  0.00  0.00    +0.002 C 
ATOM     79  CG1 VAL A  10     -12.044  14.278  19.805  0.00  0.00    +0.002 C 
ENDBRANCH  65  77
ENDBRANCH  62  65
ENDBRANCH  60  61
BRANCH  60  80
ATOM     80  CB  THR A   9     -15.648  17.773  17.308  0.00  0.00    +0.137 C 
ATOM     81  CG2 THR A   9     -17.000  17.098  17.557  0.00  0.00    +0.034 C 
BRANCH  80  82
ATOM     82  OG1 THR A   9     -15.766  19.211  17.403  0.00  0.00    -0.382 OA
ATOM     83  HG1 THR A   9     -14.913  19.630  17.126  0.00  0.00    +0.210 HD
ENDBRANCH  80  82
ENDBRANCH  60  80
ENDBRANCH  58  60
ENDBRANCH  55  56
BRANCH  55  84
ATOM     84  CB  ASP A   8     -10.362  17.745  17.563  0.00  0.00    +0.143 C 
BRANCH  84  85
ATOM     85  CG  ASP A   8      -8.927  17.971  17.277  0.00  0.00    +0.367 C 
ATOM     86  OD2 ASP A   8      -8.161  18.039  18.221  0.00  0.00    -0.246 OA
ATOM     87  OD1 ASP A   8      -8.568  18.034  16.110  0.00  0.00    -0.246 OA
ENDBRANCH  84  85
ENDBRANCH  55  84
ENDBRANCH  52  55
ENDBRANCH  50  51
BRANCH  50  88
ATOM     88  CB  ASP A   7      -7.921  21.949  19.090  0.00  0.00    +0.143 C 
BRANCH  88  89
ATOM     89  CG  ASP A   7      -6.807  21.926  20.080  0.00  0.00    +0.367 C 
ATOM     90  OD2 ASP A   7      -6.819  22.767  20.976  0.00  0.00    -0.246 OA
ATOM     91  OD1 ASP A   7      -5.956  21.049  19.950  0.00  0.00    -0.246 OA
ENDBRANCH  88  89
ENDBRANCH  50  88
ENDBRANCH   3  50
TORSDOF 39
REMARK  Name = ../refined-set-2016/1dmp/1dmp_pocket.pdb
REMARK  210 active torsions:
REMARK  status: ('A' for Active; 'I' for Inactive)
REMARK    1  A    between atoms: _1  and  _3
REMARK    2  A    between atoms: _3  and  _4
REMARK    3  A    between atoms: _3  and  _6
REMARK    4  A    between atoms: _6  and  _7
REMARK    5  A    between atoms: _7  and  _8
REMARK    6  A    between atoms: _8  and  _9
REMARK    7  A    between atoms: _18  and  _20
REMARK    8  A    between atoms: _20  and  _21
REMARK    9  A    between atoms: _20  and  _23
REMARK   10  A    between atoms: _23  and  _24
REMARK   11  A    between atoms: _27  and  _29
REMARK   12  A    between atoms: _29  and  _30
REMARK   13  A    between atoms: _29  and  _32
REMARK   14  A    between atoms: _32  and  _33
REMARK   15  A    between atoms: _36  and  _38
REMARK   16  A    between atoms: _38  and  _39
REMARK   17  A    between atoms: _38  and  _41
REMARK   18  A    between atoms: _41  and  _42
REMARK   19  A    between atoms: _45  and  _47
REMARK   20  A    between atoms: _47  and  _48
REMARK   21  A    between atoms: _47  and  _50
REMARK   22  A    between atoms: _50  and  _51
REMARK   23  A    between atoms: _54  and  _56
REMARK   24  A    between atoms: _56  and  _57
REMARK   25  A    between atoms: _59  and  _61
REMARK   26  A    between atoms: _61  and  _62
REMARK   27  A    between atoms: _65  and  _67
REMARK   28  A    between atoms: _67  and  _68
REMARK   29  A    between atoms: _67  and  _70
REMARK   30  A    between atoms: _70  and  _71
REMARK   31  A    between atoms: _74  and  _76
REMARK   32  A    between atoms: _76  and  _77
REMARK   33  A    between atoms: _76  and  _79
REMARK   34  A    between atoms: _79  and  _80
REMARK   35  A    between atoms: _83  and  _85
REMARK   36  A    between atoms: _85  and  _86
REMARK   37  A    between atoms: _85  and  _88
REMARK   38  A    between atoms: _88  and  _89
REMARK   39  A    between atoms: _92  and  _94
REMARK   40  A    between atoms: _94  and  _95
REMARK   41  A    between atoms: _94  and  _97
REMARK   42  A    between atoms: _100  and  _102
REMARK   43  A    between atoms: _102  and  _103
REMARK   44  A    between atoms: _102  and  _105
REMARK   45  A    between atoms: _105  and  _106
REMARK   46  A    between atoms: _109  and  _111
REMARK   47  A    between atoms: _111  and  _112
REMARK   48  A    between atoms: _111  and  _114
REMARK   49  A    between atoms: _114  and  _115
REMARK   50  A    between atoms: _115  and  _116
REMARK   51  A    between atoms: _116  and  _117
REMARK   52  A    between atoms: _117  and  _118
REMARK   53  A    between atoms: _122  and  _124
REMARK   54  A    between atoms: _124  and  _125
REMARK   55  A    between atoms: _124  and  _127
REMARK   56  A    between atoms: _127  and  _128
REMARK   57  A    between atoms: _128  and  _129
REMARK   58  A    between atoms: _131  and  _133
REMARK   59  A    between atoms: _133  and  _134
REMARK   60  A    between atoms: _133  and  _136
REMARK   61  A    between atoms: _136  and  _137
REMARK   62  A    between atoms: _140  and  _142
REMARK   63  A    between atoms: _142  and  _143
REMARK   64  A    between atoms: _145  and  _147
REMARK   65  A    between atoms: _147  and  _148
REMARK   66  A    between atoms: _150  and  _152
REMARK   67  A    between atoms: _152  and  _153
REMARK   68  A    between atoms: _152  and  _155
REMARK   69  A    between atoms: _155  and  _156
REMARK   70  A    between atoms: _159  and  _161
REMARK   71  A    between atoms: _161  and  _162
REMARK   72  A    between atoms: _164  and  _166
REMARK   73  A    between atoms: _166  and  _167
REMARK   74  A    between atoms: _169  and  _171
REMARK   75  A    between atoms: _171  and  _172
REMARK   76  A    between atoms: _171  and  _174
REMARK   77  A    between atoms: _174  and  _175
REMARK   78  A    between atoms: _178  and  _180
REMARK   79  A    between atoms: _180  and  _181
REMARK   80  A    between atoms: _180  and  _183
REMARK   81  A    between atoms: _183  and  _184
REMARK   82  A    between atoms: _187  and  _189
REMARK   83  A    between atoms: _189  and  _190
REMARK   84  A    between atoms: _189  and  _192
REMARK   85  A    between atoms: _192  and  _193
REMARK   86  A    between atoms: _197  and  _198
REMARK   87  A    between atoms: _203  and  _205
REMARK   88  A    between atoms: _205  and  _206
REMARK   89  A    between atoms: _205  and  _208
REMARK   90  A    between atoms: _211  and  _213
REMARK   91  A    between atoms: _213  and  _214
REMARK   92  A    between atoms: _213  and  _216
REMARK   93  A    between atoms: _216  and  _217
REMARK   94  A    between atoms: _222  and  _224
REMARK   95  A    between atoms: _224  and  _225
REMARK   96  A    between atoms: _224  and  _227
REMARK   97  A    between atoms: _227  and  _228
REMARK   98  A    between atoms: _231  and  _233
REMARK   99  A    between atoms: _233  and  _234
REMARK  100  A    between atoms: _233  and  _236
REMARK  101  A    between atoms: _236  and  _237
REMARK  102  A    between atoms: _240  and  _242
REMARK  103  A    between atoms: _242  and  _243
REMARK  104  A    between atoms: _245  and  _247
REMARK  105  A    between atoms: _247  and  _248
REMARK  106  A    between atoms: _247  and  _250
REMARK  107  A    between atoms: _250  and  _251
REMARK  108  A    between atoms: _251  and  _252
REMARK  109  A    between atoms: _252  and  _253
REMARK  110  A    between atoms: _262  and  _264
REMARK  111  A    between atoms: _264  and  _265
REMARK  112  A    between atoms: _264  and  _267
REMARK  113  A    between atoms: _267  and  _268
REMARK  114  A    between atoms: _268  and  _269
REMARK  115  A    between atoms: _269  and  _270
REMARK  116  A    between atoms: _279  and  _281
REMARK  117  A    between atoms: _281  and  _282
REMARK  118  A    between atoms: _281  and  _284
REMARK  119  A    between atoms: _284  and  _285
REMARK  120  A    between atoms: _288  and  _290
REMARK  121  A    between atoms: _290  and  _291
REMARK  122  A    between atoms: _290  and  _293
REMARK  123  A    between atoms: _293  and  _294
REMARK  124  A    between atoms: _297  and  _299
REMARK  125  A    between atoms: _299  and  _300
REMARK  126  A    between atoms: _299  and  _302
REMARK  127  A    between atoms: _302  and  _303
REMARK  128  A    between atoms: _306  and  _308
REMARK  129  A    between atoms: _308  and  _309
REMARK  130  A    between atoms: _308  and  _311
REMARK  131  A    between atoms: _311  and  _312
REMARK  132  A    between atoms: _315  and  _317
REMARK  133  A    between atoms: _317  and  _318
REMARK  134  A    between atoms: _320  and  _322
REMARK  135  A    between atoms: _322  and  _323
REMARK  136  A    between atoms: _326  and  _328
REMARK  137  A    between atoms: _328  and  _329
REMARK  138  A    between atoms: _328  and  _331
REMARK  139  A    between atoms: _331  and  _332
REMARK  140  A    between atoms: _335  and  _337
REMARK  141  A    between atoms: _337  and  _338
REMARK  142  A    between atoms: _337  and  _340
REMARK  143  A    between atoms: _340  and  _341
REMARK  144  A    between atoms: _344  and  _346
REMARK  145  A    between atoms: _346  and  _347
REMARK  146  A    between atoms: _346  and  _349
REMARK  147  A    between atoms: _349  and  _350
REMARK  148  A    between atoms: _353  and  _355
REMARK  149  A    between atoms: _355  and  _356
REMARK  150  A    between atoms: _355  and  _358
REMARK  151  A    between atoms: _361  and  _363
REMARK  152  A    between atoms: _363  and  _364
REMARK  153  A    between atoms: _363  and  _366
REMARK  154  A    between atoms: _366  and  _367
REMARK  155  A    between atoms: _370  and  _372
REMARK  156  A    between atoms: _372  and  _373
REMARK  157  A    between atoms: _372  and  _375
REMARK  158  A    between atoms: _375  and  _376
REMARK  159  A    between atoms: _379  and  _381
REMARK  160  A    between atoms: _381  and  _382
REMARK  161  A    between atoms: _384  and  _386
REMARK  162  A    between atoms: _386  and  _387
REMARK  163  A    between atoms: _389  and  _391
REMARK  164  A    between atoms: _391  and  _392
REMARK  165  A    between atoms: _391  and  _394
REMARK  166  A    between atoms: _394  and  _395
REMARK  167  A    between atoms: _398  and  _400
REMARK  168  A    between atoms: _400  and  _401
REMARK  169  A    between atoms: _403  and  _405
REMARK  170  A    between atoms: _405  and  _406
REMARK  171  A    between atoms: _408  and  _410
REMARK  172  A    between atoms: _410  and  _411
REMARK  173  A    between atoms: _410  and  _413
REMARK  174  A    between atoms: _413  and  _414
REMARK  175  A    between atoms: _417  and  _419
REMARK  176  A    between atoms: _419  and  _420
REMARK  177  A    between atoms: _419  and  _422
REMARK  178  A    between atoms: _422  and  _423
REMARK  179  A    between atoms: _426  and  _428
REMARK  180  A    between atoms: _428  and  _429
REMARK  181  A    between atoms: _428  and  _431
REMARK  182  A    between atoms: _431  and  _432
REMARK  183  A    between atoms: _436  and  _437
REMARK  184  A    between atoms: _442  and  _444
REMARK  185  A    between atoms: _444  and  _445
REMARK  186  A    between atoms: _444  and  _447
REMARK  187  A    between atoms: _450  and  _452
REMARK  188  A    between atoms: _452  and  _453
REMARK  189  A    between atoms: _452  and  _455
REMARK  190  A    between atoms: _455  and  _456
REMARK  191  A    between atoms: _461  and  _463
REMARK  192  A    between atoms: _463  and  _464
REMARK  193  A    between atoms: _463  and  _466
REMARK  194  A    between atoms: _466  and  _467
REMARK  195  A    between atoms: _470  and  _472
REMARK  196  A    between atoms: _472  and  _473
REMARK  197  A    between atoms: _472  and  _475
REMARK  198  A    between atoms: _475  and  _476
REMARK  199  A    between atoms: _479  and  _481
REMARK  200  A    between atoms: _481  and  _482
REMARK  201  A    between atoms: _484  and  _486
REMARK  202  A    between atoms: _486  and  _487
REMARK  203  A    between atoms: _486  and  _489
REMARK  204  A    between atoms: _489  and  _490
REMARK  205  A    between atoms: _490  and  _491
REMARK  206  A    between atoms: _491  and  _492
REMARK  207  A    between atoms: _501  and  _503
REMARK  208  A    between atoms: _503  and  _504
REMARK  209  A    between atoms: _503  and  _506
REMARK  210  A    between atoms: _506  and  _507
REMARK                            x       y       z     vdW  Elec       q    Type
REMARK                         _______ _______ _______ _____ _____    ______ ____
ROOT
ATOM      1  C   GLY A   3      -4.305  13.258  27.077  0.00  0.00    +0.243 C 
ATOM      2  N   ILE A   4      -4.994  13.424  28.165  0.00  0.00    -0.297 N 
ATOM      3  H   ILE A   4      -5.895  13.943  28.122  0.00  0.00    +0.150 HD
ATOM      4  O   GLY A   3      -3.186  12.772  27.109  0.00  0.00    -0.273 OA
ENDROOT
BRANCH   2   5
ATOM      5  CA  ILE A   4      -4.539  12.906  29.430  0.00  0.00    +0.149 C 
BRANCH   5   6
ATOM      6  C   ILE A   4      -4.670  11.424  29.266  0.00  0.00    +0.241 C 
ATOM      7  N   GLY A   5      -3.735  10.705  29.840  0.00  0.00    -0.295 N 
ATOM      8  H   GLY A   5      -2.997  11.105  30.454  0.00  0.00    +0.150 HD
ATOM      9  O   ILE A   4      -5.590  10.957  28.601  0.00  0.00    -0.273 OA
BRANCH   7  10
ATOM     10  CA  GLY A   5      -3.841   9.294  29.527  0.00  0.00    +0.176 C 
BRANCH  10  11
ATOM     11  C   GLY A   5      -3.082   8.877  28.257  0.00  0.00    +0.243 C 
ATOM     12  O   GLY A   5      -2.412   7.842  28.244  0.00  0.00    -0.273 OA
ATOM     13  N   GLY A   6      -3.143   9.705  27.212  0.00  0.00    -0.296 N 
ATOM     14  H   GLY A   6      -3.693  10.588  27.227  0.00  0.00    +0.150 HD
BRANCH  13  15
ATOM     15  CA  GLY A   6      -2.382   9.277  26.053  0.00  0.00    +0.163 C 
BRANCH  15  16
ATOM     16  C   GLY A   6      -3.133   9.425  24.779  0.00  0.00    +0.229 C 
ATOM     17  O   GLY A   6      -3.846  10.382  24.589  0.00  0.00    -0.286 OA
ENDBRANCH  15  16
ENDBRANCH  13  15
ENDBRANCH  10  11
ENDBRANCH   7  10
ENDBRANCH   5   6
BRANCH   5  18
ATOM     18  CB  ILE A   4      -5.510  13.497  30.457  0.00  0.00    +0.027 C 
ATOM     19  CG2 ILE A   4      -5.970  12.563  31.545  0.00  0.00    +0.002 C 
BRANCH  18  20
ATOM     20  CG1 ILE A   4      -4.901  14.676  31.181  0.00  0.00    +0.002 C 
ATOM     21  CD1 ILE A   4      -4.662  15.912  30.300  0.00  0.00    +0.000 C 
ENDBRANCH  18  20
ENDBRANCH   5  18
ENDBRANCH   2   5
BRANCH   1  22
ATOM     22  CA  GLY A   3      -5.045  13.728  25.844  0.00  0.00    +0.176 C 
BRANCH  22  24
ATOM     23  C   GLY A   2      -4.385  13.584  23.547  0.00  0.00    +0.243 C 
ATOM     24  N   GLY A   3      -4.600  12.994  24.685  0.00  0.00    -0.295 N 
ATOM     25  H   GLY A   3      -4.447  11.968  24.762  0.00  0.00    +0.150 HD
ATOM     26  O   GLY A   2      -4.683  14.736  23.306  0.00  0.00    -0.273 OA
BRANCH  23  27
ATOM     27  CA  GLY A   2      -3.705  12.705  22.528  0.00  0.00    +0.176 C 
BRANCH  27  29
ATOM     28  C   ILE A   1      -4.691  11.991  20.433  0.00  0.00    +0.238 C 
ATOM     29  N   GLY A   2      -4.105  12.951  21.139  0.00  0.00    -0.296 N 
ATOM     30  H   GLY A   2      -3.929  13.880  20.706  0.00  0.00    +0.150 HD
ATOM     31  O   ILE A   1      -5.033  10.901  20.867  0.00  0.00    -0.274 OA
BRANCH  28  32
ATOM     32  CA  ILE A   1      -4.946  12.261  19.000  0.00  0.00    +0.145 C 
BRANCH  32  33
ATOM     33  CB  ILE A   1      -6.348  12.934  18.862  0.00  0.00    +0.025 C 
ATOM     34  CG2 ILE A   1      -6.871  12.940  17.419  0.00  0.00    +0.002 C 
BRANCH  33  35
ATOM     35  CG1 ILE A   1      -7.501  12.534  19.787  0.00  0.00    +0.002 C 
ATOM     36  CD1 ILE A   1      -8.279  13.762  20.276  0.00  0.00    +0.000 C 
ENDBRANCH  33  35
ENDBRANCH  32  33
BRANCH  32  37
ATOM     37  N   ILE A   1      -4.826  10.969  18.318  0.00  0.00    -0.238 NA
ATOM     38  H   ILE A   1      -5.181  10.098  18.762  0.00  0.00    +0.142 HD
ENDBRANCH  32  37
ENDBRANCH  28  32
ENDBRANCH  27  29
ENDBRANCH  23  27
ENDBRANCH  22  24
ENDBRANCH   1  22
TORSDOF 16
REMARK  Name = ../refined-set-2016/1dmp/1dmp_pocket.pdb
REMARK  210 active torsions:
REMARK  status: ('A' for Active; 'I' for Inactive)
REMARK    1  A    between atoms: _1  and  _3
REMARK    2  A    between atoms: _3  and  _4
REMARK    3  A    between atoms: _3  and  _6
REMARK    4  A    between atoms: _6  and  _7
REMARK    5  A    between atoms: _7  and  _8
REMARK    6  A    between atoms: _8  and  _9
REMARK    7  A    between atoms: _18  and  _20
REMARK    8  A    between atoms: _20  and  _21
REMARK    9  A    between atoms: _20  and  _23
REMARK   10  A    between atoms: _23  and  _24
REMARK   11  A    between atoms: _27  and  _29
REMARK   12  A    between atoms: _29  and  _30
REMARK   13  A    between atoms: _29  and  _32
REMARK   14  A    between atoms: _32  and  _33
REMARK   15  A    between atoms: _36  and  _38
REMARK   16  A    between atoms: _38  and  _39
REMARK   17  A    between atoms: _38  and  _41
REMARK   18  A    between atoms: _41  and  _42
REMARK   19  A    between atoms: _45  and  _47
REMARK   20  A    between atoms: _47  and  _48
REMARK   21  A    between atoms: _47  and  _50
REMARK   22  A    between atoms: _50  and  _51
REMARK   23  A    between atoms: _54  and  _56
REMARK   24  A    between atoms: _56  and  _57
REMARK   25  A    between atoms: _59  and  _61
REMARK   26  A    between atoms: _61  and  _62
REMARK   27  A    between atoms: _65  and  _67
REMARK   28  A    between atoms: _67  and  _68
REMARK   29  A    between atoms: _67  and  _70
REMARK   30  A    between atoms: _70  and  _71
REMARK   31  A    between atoms: _74  and  _76
REMARK   32  A    between atoms: _76  and  _77
REMARK   33  A    between atoms: _76  and  _79
REMARK   34  A    between atoms: _79  and  _80
REMARK   35  A    between atoms: _83  and  _85
REMARK   36  A    between atoms: _85  and  _86
REMARK   37  A    between atoms: _85  and  _88
REMARK   38  A    between atoms: _88  and  _89
REMARK   39  A    between atoms: _92  and  _94
REMARK   40  A    between atoms: _94  and  _95
REMARK   41  A    between atoms: _94  and  _97
REMARK   42  A    between atoms: _100  and  _102
REMARK   43  A    between atoms: _102  and  _103
REMARK   44  A    between atoms: _102  and  _105
REMARK   45  A    between atoms: _105  and  _106
REMARK   46  A    between atoms: _109  and  _111
REMARK   47  A    between atoms: _111  and  _112
REMARK   48  A    between atoms: _111  and  _114
REMARK   49  A    between atoms: _114  and  _115
REMARK   50  A    between atoms: _115  and  _116
REMARK   51  A    between atoms: _116  and  _117
REMARK   52  A    between atoms: _117  and  _118
REMARK   53  A    between atoms: _122  and  _124
REMARK   54  A    between atoms: _124  and  _125
REMARK   55  A    between atoms: _124  and  _127
REMARK   56  A    between atoms: _127  and  _128
REMARK   57  A    between atoms: _128  and  _129
REMARK   58  A    between atoms: _131  and  _133
REMARK   59  A    between atoms: _133  and  _134
REMARK   60  A    between atoms: _133  and  _136
REMARK   61  A    between atoms: _136  and  _137
REMARK   62  A    between atoms: _140  and  _142
REMARK   63  A    between atoms: _142  and  _143
REMARK   64  A    between atoms: _145  and  _147
REMARK   65  A    between atoms: _147  and  _148
REMARK   66  A    between atoms: _150  and  _152
REMARK   67  A    between atoms: _152  and  _153
REMARK   68  A    between atoms: _152  and  _155
REMARK   69  A    between atoms: _155  and  _156
REMARK   70  A    between atoms: _159  and  _161
REMARK   71  A    between atoms: _161  and  _162
REMARK   72  A    between atoms: _164  and  _166
REMARK   73  A    between atoms: _166  and  _167
REMARK   74  A    between atoms: _169  and  _171
REMARK   75  A    between atoms: _171  and  _172
REMARK   76  A    between atoms: _171  and  _174
REMARK   77  A    between atoms: _174  and  _175
REMARK   78  A    between atoms: _178  and  _180
REMARK   79  A    between atoms: _180  and  _181
REMARK   80  A    between atoms: _180  and  _183
REMARK   81  A    between atoms: _183  and  _184
REMARK   82  A    between atoms: _187  and  _189
REMARK   83  A    between atoms: _189  and  _190
REMARK   84  A    between atoms: _189  and  _192
REMARK   85  A    between atoms: _192  and  _193
REMARK   86  A    between atoms: _197  and  _198
REMARK   87  A    between atoms: _203  and  _205
REMARK   88  A    between atoms: _205  and  _206
REMARK   89  A    between atoms: _205  and  _208
REMARK   90  A    between atoms: _211  and  _213
REMARK   91  A    between atoms: _213  and  _214
REMARK   92  A    between atoms: _213  and  _216
REMARK   93  A    between atoms: _216  and  _217
REMARK   94  A    between atoms: _222  and  _224
REMARK   95  A    between atoms: _224  and  _225
REMARK   96  A    between atoms: _224  and  _227
REMARK   97  A    between atoms: _227  and  _228
REMARK   98  A    between atoms: _231  and  _233
REMARK   99  A    between atoms: _233  and  _234
REMARK  100  A    between atoms: _233  and  _236
REMARK  101  A    between atoms: _236  and  _237
REMARK  102  A    between atoms: _240  and  _242
REMARK  103  A    between atoms: _242  and  _243
REMARK  104  A    between atoms: _245  and  _247
REMARK  105  A    between atoms: _247  and  _248
REMARK  106  A    between atoms: _247  and  _250
REMARK  107  A    between atoms: _250  and  _251
REMARK  108  A    between atoms: _251  and  _252
REMARK  109  A    between atoms: _252  and  _253
REMARK  110  A    between atoms: _262  and  _264
REMARK  111  A    between atoms: _264  and  _265
REMARK  112  A    between atoms: _264  and  _267
REMARK  113  A    between atoms: _267  and  _268
REMARK  114  A    between atoms: _268  and  _269
REMARK  115  A    between atoms: _269  and  _270
REMARK  116  A    between atoms: _279  and  _281
REMARK  117  A    between atoms: _281  and  _282
REMARK  118  A    between atoms: _281  and  _284
REMARK  119  A    between atoms: _284  and  _285
REMARK  120  A    between atoms: _288  and  _290
REMARK  121  A    between atoms: _290  and  _291
REMARK  122  A    between atoms: _290  and  _293
REMARK  123  A    between atoms: _293  and  _294
REMARK  124  A    between atoms: _297  and  _299
REMARK  125  A    between atoms: _299  and  _300
REMARK  126  A    between atoms: _299  and  _302
REMARK  127  A    between atoms: _302  and  _303
REMARK  128  A    between atoms: _306  and  _308
REMARK  129  A    between atoms: _308  and  _309
REMARK  130  A    between atoms: _308  and  _311
REMARK  131  A    between atoms: _311  and  _312
REMARK  132  A    between atoms: _315  and  _317
REMARK  133  A    between atoms: _317  and  _318
REMARK  134  A    between atoms: _320  and  _322
REMARK  135  A    between atoms: _322  and  _323
REMARK  136  A    between atoms: _326  and  _328
REMARK  137  A    between atoms: _328  and  _329
REMARK  138  A    between atoms: _328  and  _331
REMARK  139  A    between atoms: _331  and  _332
REMARK  140  A    between atoms: _335  and  _337
REMARK  141  A    between atoms: _337  and  _338
REMARK  142  A    between atoms: _337  and  _340
REMARK  143  A    between atoms: _340  and  _341
REMARK  144  A    between atoms: _344  and  _346
REMARK  145  A    between atoms: _346  and  _347
REMARK  146  A    between atoms: _346  and  _349
REMARK  147  A    between atoms: _349  and  _350
REMARK  148  A    between atoms: _353  and  _355
REMARK  149  A    between atoms: _355  and  _356
REMARK  150  A    between atoms: _355  and  _358
REMARK  151  A    between atoms: _361  and  _363
REMARK  152  A    between atoms: _363  and  _364
REMARK  153  A    between atoms: _363  and  _366
REMARK  154  A    between atoms: _366  and  _367
REMARK  155  A    between atoms: _370  and  _372
REMARK  156  A    between atoms: _372  and  _373
REMARK  157  A    between atoms: _372  and  _375
REMARK  158  A    between atoms: _375  and  _376
REMARK  159  A    between atoms: _379  and  _381
REMARK  160  A    between atoms: _381  and  _382
REMARK  161  A    between atoms: _384  and  _386
REMARK  162  A    between atoms: _386  and  _387
REMARK  163  A    between atoms: _389  and  _391
REMARK  164  A    between atoms: _391  and  _392
REMARK  165  A    between atoms: _391  and  _394
REMARK  166  A    between atoms: _394  and  _395
REMARK  167  A    between atoms: _398  and  _400
REMARK  168  A    between atoms: _400  and  _401
REMARK  169  A    between atoms: _403  and  _405
REMARK  170  A    between atoms: _405  and  _406
REMARK  171  A    between atoms: _408  and  _410
REMARK  172  A    between atoms: _410  and  _411
REMARK  173  A    between atoms: _410  and  _413
REMARK  174  A    between atoms: _413  and  _414
REMARK  175  A    between atoms: _417  and  _419
REMARK  176  A    between atoms: _419  and  _420
REMARK  177  A    between atoms: _419  and  _422
REMARK  178  A    between atoms: _422  and  _423
REMARK  179  A    between atoms: _426  and  _428
REMARK  180  A    between atoms: _428  and  _429
REMARK  181  A    between atoms: _428  and  _431
REMARK  182  A    between atoms: _431  and  _432
REMARK  183  A    between atoms: _436  and  _437
REMARK  184  A    between atoms: _442  and  _444
REMARK  185  A    between atoms: _444  and  _445
REMARK  186  A    between atoms: _444  and  _447
REMARK  187  A    between atoms: _450  and  _452
REMARK  188  A    between atoms: _452  and  _453
REMARK  189  A    between atoms: _452  and  _455
REMARK  190  A    between atoms: _455  and  _456
REMARK  191  A    between atoms: _461  and  _463
REMARK  192  A    between atoms: _463  and  _464
REMARK  193  A    between atoms: _463  and  _466
REMARK  194  A    between atoms: _466  and  _467
REMARK  195  A    between atoms: _470  and  _472
REMARK  196  A    between atoms: _472  and  _473
REMARK  197  A    between atoms: _472  and  _475
REMARK  198  A    between atoms: _475  and  _476
REMARK  199  A    between atoms: _479  and  _481
REMARK  200  A    between atoms: _481  and  _482
REMARK  201  A    between atoms: _484  and  _486
REMARK  202  A    between atoms: _486  and  _487
REMARK  203  A    between atoms: _486  and  _489
REMARK  204  A    between atoms: _489  and  _490
REMARK  205  A    between atoms: _490  and  _491
REMARK  206  A    between atoms: _491  and  _492
REMARK  207  A    between atoms: _501  and  _503
REMARK  208  A    between atoms: _503  and  _504
REMARK  209  A    between atoms: _503  and  _506
REMARK  210  A    between atoms: _506  and  _507
REMARK                            x       y       z     vdW  Elec       q    Type
REMARK                         _______ _______ _______ _____ _____    ______ ____
ROOT
ATOM      1  CA  ILE A   1      -6.439   7.316  20.762  0.00  0.00    +0.133 C 
ENDROOT
BRANCH   1   2
ATOM      2  N   ILE A   1      -5.479   8.222  21.417  0.00  0.00    -0.239 NA
ATOM      3  H   ILE A   1      -5.630   9.249  21.350  0.00  0.00    +0.142 HD
ENDBRANCH   1   2
BRANCH   1   4
ATOM      4  CB  ILE A   1      -7.874   7.657  21.246  0.00  0.00    +0.023 C 
ATOM      5  CG2 ILE A   1      -7.966   7.480  22.747  0.00  0.00    +0.002 C 
BRANCH   4   6
ATOM      6  CG1 ILE A   1      -8.297   9.101  20.914  0.00  0.00    +0.002 C 
ATOM      7  CD1 ILE A   1      -9.689   9.448  21.412  0.00  0.00    +0.000 C 
ENDBRANCH   4   6
ENDBRANCH   1   4
BRANCH   1   8
ATOM      8  C   ILE A   1      -6.322   7.455  19.227  0.00  0.00    +0.224 C 
ATOM      9  O   ILE A   1      -5.874   8.473  18.700  0.00  0.00    -0.287 OA
ENDBRANCH   1   8
TORSDOF 4
REMARK  Name = ../refined-set-2016/1dmp/1dmp_pocket.pdb
REMARK  210 active torsions:
REMARK  status: ('A' for Active; 'I' for Inactive)
REMARK    1  A    between atoms: _1  and  _3
REMARK    2  A    between atoms: _3  and  _4
REMARK    3  A    between atoms: _3  and  _6
REMARK    4  A    between atoms: _6  and  _7
REMARK    5  A    between atoms: _7  and  _8
REMARK    6  A    between atoms: _8  and  _9
REMARK    7  A    between atoms: _18  and  _20
REMARK    8  A    between atoms: _20  and  _21
REMARK    9  A    between atoms: _20  and  _23
REMARK   10  A    between atoms: _23  and  _24
REMARK   11  A    between atoms: _27  and  _29
REMARK   12  A    between atoms: _29  and  _30
REMARK   13  A    between atoms: _29  and  _32
REMARK   14  A    between atoms: _32  and  _33
REMARK   15  A    between atoms: _36  and  _38
REMARK   16  A    between atoms: _38  and  _39
REMARK   17  A    between atoms: _38  and  _41
REMARK   18  A    between atoms: _41  and  _42
REMARK   19  A    between atoms: _45  and  _47
REMARK   20  A    between atoms: _47  and  _48
REMARK   21  A    between atoms: _47  and  _50
REMARK   22  A    between atoms: _50  and  _51
REMARK   23  A    between atoms: _54  and  _56
REMARK   24  A    between atoms: _56  and  _57
REMARK   25  A    between atoms: _59  and  _61
REMARK   26  A    between atoms: _61  and  _62
REMARK   27  A    between atoms: _65  and  _67
REMARK   28  A    between atoms: _67  and  _68
REMARK   29  A    between atoms: _67  and  _70
REMARK   30  A    between atoms: _70  and  _71
REMARK   31  A    between atoms: _74  and  _76
REMARK   32  A    between atoms: _76  and  _77
REMARK   33  A    between atoms: _76  and  _79
REMARK   34  A    between atoms: _79  and  _80
REMARK   35  A    between atoms: _83  and  _85
REMARK   36  A    between atoms: _85  and  _86
REMARK   37  A    between atoms: _85  and  _88
REMARK   38  A    between atoms: _88  and  _89
REMARK   39  A    between atoms: _92  and  _94
REMARK   40  A    between atoms: _94  and  _95
REMARK   41  A    between atoms: _94  and  _97
REMARK   42  A    between atoms: _100  and  _102
REMARK   43  A    between atoms: _102  and  _103
REMARK   44  A    between atoms: _102  and  _105
REMARK   45  A    between atoms: _105  and  _106
REMARK   46  A    between atoms: _109  and  _111
REMARK   47  A    between atoms: _111  and  _112
REMARK   48  A    between atoms: _111  and  _114
REMARK   49  A    between atoms: _114  and  _115
REMARK   50  A    between atoms: _115  and  _116
REMARK   51  A    between atoms: _116  and  _117
REMARK   52  A    between atoms: _117  and  _118
REMARK   53  A    between atoms: _122  and  _124
REMARK   54  A    between atoms: _124  and  _125
REMARK   55  A    between atoms: _124  and  _127
REMARK   56  A    between atoms: _127  and  _128
REMARK   57  A    between atoms: _128  and  _129
REMARK   58  A    between atoms: _131  and  _133
REMARK   59  A    between atoms: _133  and  _134
REMARK   60  A    between atoms: _133  and  _136
REMARK   61  A    between atoms: _136  and  _137
REMARK   62  A    between atoms: _140  and  _142
REMARK   63  A    between atoms: _142  and  _143
REMARK   64  A    between atoms: _145  and  _147
REMARK   65  A    between atoms: _147  and  _148
REMARK   66  A    between atoms: _150  and  _152
REMARK   67  A    between atoms: _152  and  _153
REMARK   68  A    between atoms: _152  and  _155
REMARK   69  A    between atoms: _155  and  _156
REMARK   70  A    between atoms: _159  and  _161
REMARK   71  A    between atoms: _161  and  _162
REMARK   72  A    between atoms: _164  and  _166
REMARK   73  A    between atoms: _166  and  _167
REMARK   74  A    between atoms: _169  and  _171
REMARK   75  A    between atoms: _171  and  _172
REMARK   76  A    between atoms: _171  and  _174
REMARK   77  A    between atoms: _174  and  _175
REMARK   78  A    between atoms: _178  and  _180
REMARK   79  A    between atoms: _180  and  _181
REMARK   80  A    between atoms: _180  and  _183
REMARK   81  A    between atoms: _183  and  _184
REMARK   82  A    between atoms: _187  and  _189
REMARK   83  A    between atoms: _189  and  _190
REMARK   84  A    between atoms: _189  and  _192
REMARK   85  A    between atoms: _192  and  _193
REMARK   86  A    between atoms: _197  and  _198
REMARK   87  A    between atoms: _203  and  _205
REMARK   88  A    between atoms: _205  and  _206
REMARK   89  A    between atoms: _205  and  _208
REMARK   90  A    between atoms: _211  and  _213
REMARK   91  A    between atoms: _213  and  _214
REMARK   92  A    between atoms: _213  and  _216
REMARK   93  A    between atoms: _216  and  _217
REMARK   94  A    between atoms: _222  and  _224
REMARK   95  A    between atoms: _224  and  _225
REMARK   96  A    between atoms: _224  and  _227
REMARK   97  A    between atoms: _227  and  _228
REMARK   98  A    between atoms: _231  and  _233
REMARK   99  A    between atoms: _233  and  _234
REMARK  100  A    between atoms: _233  and  _236
REMARK  101  A    between atoms: _236  and  _237
REMARK  102  A    between atoms: _240  and  _242
REMARK  103  A    between atoms: _242  and  _243
REMARK  104  A    between atoms: _245  and  _247
REMARK  105  A    between atoms: _247  and  _248
REMARK  106  A    between atoms: _247  and  _250
REMARK  107  A    between atoms: _250  and  _251
REMARK  108  A    between atoms: _251  and  _252
REMARK  109  A    between atoms: _252  and  _253
REMARK  110  A    between atoms: _262  and  _264
REMARK  111  A    between atoms: _264  and  _265
REMARK  112  A    between atoms: _264  and  _267
REMARK  113  A    between atoms: _267  and  _268
REMARK  114  A    between atoms: _268  and  _269
REMARK  115  A    between atoms: _269  and  _270
REMARK  116  A    between atoms: _279  and  _281
REMARK  117  A    between atoms: _281  and  _282
REMARK  118  A    between atoms: _281  and  _284
REMARK  119  A    between atoms: _284  and  _285
REMARK  120  A    between atoms: _288  and  _290
REMARK  121  A    between atoms: _290  and  _291
REMARK  122  A    between atoms: _290  and  _293
REMARK  123  A    between atoms: _293  and  _294
REMARK  124  A    between atoms: _297  and  _299
REMARK  125  A    between atoms: _299  and  _300
REMARK  126  A    between atoms: _299  and  _302
REMARK  127  A    between atoms: _302  and  _303
REMARK  128  A    between atoms: _306  and  _308
REMARK  129  A    between atoms: _308  and  _309
REMARK  130  A    between atoms: _308  and  _311
REMARK  131  A    between atoms: _311  and  _312
REMARK  132  A    between atoms: _315  and  _317
REMARK  133  A    between atoms: _317  and  _318
REMARK  134  A    between atoms: _320  and  _322
REMARK  135  A    between atoms: _322  and  _323
REMARK  136  A    between atoms: _326  and  _328
REMARK  137  A    between atoms: _328  and  _329
REMARK  138  A    between atoms: _328  and  _331
REMARK  139  A    between atoms: _331  and  _332
REMARK  140  A    between atoms: _335  and  _337
REMARK  141  A    between atoms: _337  and  _338
REMARK  142  A    between atoms: _337  and  _340
REMARK  143  A    between atoms: _340  and  _341
REMARK  144  A    between atoms: _344  and  _346
REMARK  145  A    between atoms: _346  and  _347
REMARK  146  A    between atoms: _346  and  _349
REMARK  147  A    between atoms: _349  and  _350
REMARK  148  A    between atoms: _353  and  _355
REMARK  149  A    between atoms: _355  and  _356
REMARK  150  A    between atoms: _355  and  _358
REMARK  151  A    between atoms: _361  and  _363
REMARK  152  A    between atoms: _363  and  _364
REMARK  153  A    between atoms: _363  and  _366
REMARK  154  A    between atoms: _366  and  _367
REMARK  155  A    between atoms: _370  and  _372
REMARK  156  A    between atoms: _372  and  _373
REMARK  157  A    between atoms: _372  and  _375
REMARK  158  A    between atoms: _375  and  _376
REMARK  159  A    between atoms: _379  and  _381
REMARK  160  A    between atoms: _381  and  _382
REMARK  161  A    between atoms: _384  and  _386
REMARK  162  A    between atoms: _386  and  _387
REMARK  163  A    between atoms: _389  and  _391
REMARK  164  A    between atoms: _391  and  _392
REMARK  165  A    between atoms: _391  and  _394
REMARK  166  A    between atoms: _394  and  _395
REMARK  167  A    between atoms: _398  and  _400
REMARK  168  A    between atoms: _400  and  _401
REMARK  169  A    between atoms: _403  and  _405
REMARK  170  A    between atoms: _405  and  _406
REMARK  171  A    between atoms: _408  and  _410
REMARK  172  A    between atoms: _410  and  _411
REMARK  173  A    between atoms: _410  and  _413
REMARK  174  A    between atoms: _413  and  _414
REMARK  175  A    between atoms: _417  and  _419
REMARK  176  A    between atoms: _419  and  _420
REMARK  177  A    between atoms: _419  and  _422
REMARK  178  A    between atoms: _422  and  _423
REMARK  179  A    between atoms: _426  and  _428
REMARK  180  A    between atoms: _428  and  _429
REMARK  181  A    between atoms: _428  and  _431
REMARK  182  A    between atoms: _431  and  _432
REMARK  183  A    between atoms: _436  and  _437
REMARK  184  A    between atoms: _442  and  _444
REMARK  185  A    between atoms: _444  and  _445
REMARK  186  A    between atoms: _444  and  _447
REMARK  187  A    between atoms: _450  and  _452
REMARK  188  A    between atoms: _452  and  _453
REMARK  189  A    between atoms: _452  and  _455
REMARK  190  A    between atoms: _455  and  _456
REMARK  191  A    between atoms: _461  and  _463
REMARK  192  A    between atoms: _463  and  _464
REMARK  193  A    between atoms: _463  and  _466
REMARK  194  A    between atoms: _466  and  _467
REMARK  195  A    between atoms: _470  and  _472
REMARK  196  A    between atoms: _472  and  _473
REMARK  197  A    between atoms: _472  and  _475
REMARK  198  A    between atoms: _475  and  _476
REMARK  199  A    between atoms: _479  and  _481
REMARK  200  A    between atoms: _481  and  _482
REMARK  201  A    between atoms: _484  and  _486
REMARK  202  A    between atoms: _486  and  _487
REMARK  203  A    between atoms: _486  and  _489
REMARK  204  A    between atoms: _489  and  _490
REMARK  205  A    between atoms: _490  and  _491
REMARK  206  A    between atoms: _491  and  _492
REMARK  207  A    between atoms: _501  and  _503
REMARK  208  A    between atoms: _503  and  _504
REMARK  209  A    between atoms: _503  and  _506
REMARK  210  A    between atoms: _506  and  _507
REMARK                            x       y       z     vdW  Elec       q    Type
REMARK                         _______ _______ _______ _____ _____    ______ ____
ROOT
ATOM      1  CA  LEU A   1     -13.220  12.553  14.688  0.00  0.00    +0.133 C 
ENDROOT
BRANCH   1   2
ATOM      2  N   LEU A   1     -14.075  13.711  14.499  0.00  0.00    -0.239 NA
ATOM      3  H   LEU A   1     -14.182  14.372  15.295  0.00  0.00    +0.142 HD
ENDBRANCH   1   2
BRANCH   1   4
ATOM      4  C   LEU A   1     -14.022  11.605  15.470  0.00  0.00    +0.224 C 
ATOM      5  O   LEU A   1     -14.716  12.047  16.383  0.00  0.00    -0.287 OA
ENDBRANCH   1   4
BRANCH   1   6
ATOM      6  CB  LEU A   1     -12.093  12.838  15.663  0.00  0.00    +0.025 C 
BRANCH   6   7
ATOM      7  CG  LEU A   1     -11.256  13.975  15.182  0.00  0.00    +0.002 C 
ATOM      8  CD2 LEU A   1     -10.232  14.330  16.234  0.00  0.00    +0.000 C 
ATOM      9  CD1 LEU A   1     -10.569  13.615  13.866  0.00  0.00    +0.000 C 
ENDBRANCH   6   7
ENDBRANCH   1   6
TORSDOF 4
REMARK  Name = ../refined-set-2016/1dmp/1dmp_pocket.pdb
REMARK  210 active torsions:
REMARK  status: ('A' for Active; 'I' for Inactive)
REMARK    1  A    between atoms: _1  and  _3
REMARK    2  A    between atoms: _3  and  _4
REMARK    3  A    between atoms: _3  and  _6
REMARK    4  A    between atoms: _6  and  _7
REMARK    5  A    between atoms: _7  and  _8
REMARK    6  A    between atoms: _8  and  _9
REMARK    7  A    between atoms: _18  and  _20
REMARK    8  A    between atoms: _20  and  _21
REMARK    9  A    between atoms: _20  and  _23
REMARK   10  A    between atoms: _23  and  _24
REMARK   11  A    between atoms: _27  and  _29
REMARK   12  A    between atoms: _29  and  _30
REMARK   13  A    between atoms: _29  and  _32
REMARK   14  A    between atoms: _32  and  _33
REMARK   15  A    between atoms: _36  and  _38
REMARK   16  A    between atoms: _38  and  _39
REMARK   17  A    between atoms: _38  and  _41
REMARK   18  A    between atoms: _41  and  _42
REMARK   19  A    between atoms: _45  and  _47
REMARK   20  A    between atoms: _47  and  _48
REMARK   21  A    between atoms: _47  and  _50
REMARK   22  A    between atoms: _50  and  _51
REMARK   23  A    between atoms: _54  and  _56
REMARK   24  A    between atoms: _56  and  _57
REMARK   25  A    between atoms: _59  and  _61
REMARK   26  A    between atoms: _61  and  _62
REMARK   27  A    between atoms: _65  and  _67
REMARK   28  A    between atoms: _67  and  _68
REMARK   29  A    between atoms: _67  and  _70
REMARK   30  A    between atoms: _70  and  _71
REMARK   31  A    between atoms: _74  and  _76
REMARK   32  A    between atoms: _76  and  _77
REMARK   33  A    between atoms: _76  and  _79
REMARK   34  A    between atoms: _79  and  _80
REMARK   35  A    between atoms: _83  and  _85
REMARK   36  A    between atoms: _85  and  _86
REMARK   37  A    between atoms: _85  and  _88
REMARK   38  A    between atoms: _88  and  _89
REMARK   39  A    between atoms: _92  and  _94
REMARK   40  A    between atoms: _94  and  _95
REMARK   41  A    between atoms: _94  and  _97
REMARK   42  A    between atoms: _100  and  _102
REMARK   43  A    between atoms: _102  and  _103
REMARK   44  A    between atoms: _102  and  _105
REMARK   45  A    between atoms: _105  and  _106
REMARK   46  A    between atoms: _109  and  _111
REMARK   47  A    between atoms: _111  and  _112
REMARK   48  A    between atoms: _111  and  _114
REMARK   49  A    between atoms: _114  and  _115
REMARK   50  A    between atoms: _115  and  _116
REMARK   51  A    between atoms: _116  and  _117
REMARK   52  A    between atoms: _117  and  _118
REMARK   53  A    between atoms: _122  and  _124
REMARK   54  A    between atoms: _124  and  _125
REMARK   55  A    between atoms: _124  and  _127
REMARK   56  A    between atoms: _127  and  _128
REMARK   57  A    between atoms: _128  and  _129
REMARK   58  A    between atoms: _131  and  _133
REMARK   59  A    between atoms: _133  and  _134
REMARK   60  A    between atoms: _133  and  _136
REMARK   61  A    between atoms: _136  and  _137
REMARK   62  A    between atoms: _140  and  _142
REMARK   63  A    between atoms: _142  and  _143
REMARK   64  A    between atoms: _145  and  _147
REMARK   65  A    between atoms: _147  and  _148
REMARK   66  A    between atoms: _150  and  _152
REMARK   67  A    between atoms: _152  and  _153
REMARK   68  A    between atoms: _152  and  _155
REMARK   69  A    between atoms: _155  and  _156
REMARK   70  A    between atoms: _159  and  _161
REMARK   71  A    between atoms: _161  and  _162
REMARK   72  A    between atoms: _164  and  _166
REMARK   73  A    between atoms: _166  and  _167
REMARK   74  A    between atoms: _169  and  _171
REMARK   75  A    between atoms: _171  and  _172
REMARK   76  A    between atoms: _171  and  _174
REMARK   77  A    between atoms: _174  and  _175
REMARK   78  A    between atoms: _178  and  _180
REMARK   79  A    between atoms: _180  and  _181
REMARK   80  A    between atoms: _180  and  _183
REMARK   81  A    between atoms: _183  and  _184
REMARK   82  A    between atoms: _187  and  _189
REMARK   83  A    between atoms: _189  and  _190
REMARK   84  A    between atoms: _189  and  _192
REMARK   85  A    between atoms: _192  and  _193
REMARK   86  A    between atoms: _197  and  _198
REMARK   87  A    between atoms: _203  and  _205
REMARK   88  A    between atoms: _205  and  _206
REMARK   89  A    between atoms: _205  and  _208
REMARK   90  A    between atoms: _211  and  _213
REMARK   91  A    between atoms: _213  and  _214
REMARK   92  A    between atoms: _213  and  _216
REMARK   93  A    between atoms: _216  and  _217
REMARK   94  A    between atoms: _222  and  _224
REMARK   95  A    between atoms: _224  and  _225
REMARK   96  A    between atoms: _224  and  _227
REMARK   97  A    between atoms: _227  and  _228
REMARK   98  A    between atoms: _231  and  _233
REMARK   99  A    between atoms: _233  and  _234
REMARK  100  A    between atoms: _233  and  _236
REMARK  101  A    between atoms: _236  and  _237
REMARK  102  A    between atoms: _240  and  _242
REMARK  103  A    between atoms: _242  and  _243
REMARK  104  A    between atoms: _245  and  _247
REMARK  105  A    between atoms: _247  and  _248
REMARK  106  A    between atoms: _247  and  _250
REMARK  107  A    between atoms: _250  and  _251
REMARK  108  A    between atoms: _251  and  _252
REMARK  109  A    between atoms: _252  and  _253
REMARK  110  A    between atoms: _262  and  _264
REMARK  111  A    between atoms: _264  and  _265
REMARK  112  A    between atoms: _264  and  _267
REMARK  113  A    between atoms: _267  and  _268
REMARK  114  A    between atoms: _268  and  _269
REMARK  115  A    between atoms: _269  and  _270
REMARK  116  A    between atoms: _279  and  _281
REMARK  117  A    between atoms: _281  and  _282
REMARK  118  A    between atoms: _281  and  _284
REMARK  119  A    between atoms: _284  and  _285
REMARK  120  A    between atoms: _288  and  _290
REMARK  121  A    between atoms: _290  and  _291
REMARK  122  A    between atoms: _290  and  _293
REMARK  123  A    between atoms: _293  and  _294
REMARK  124  A    between atoms: _297  and  _299
REMARK  125  A    between atoms: _299  and  _300
REMARK  126  A    between atoms: _299  and  _302
REMARK  127  A    between atoms: _302  and  _303
REMARK  128  A    between atoms: _306  and  _308
REMARK  129  A    between atoms: _308  and  _309
REMARK  130  A    between atoms: _308  and  _311
REMARK  131  A    between atoms: _311  and  _312
REMARK  132  A    between atoms: _315  and  _317
REMARK  133  A    between atoms: _317  and  _318
REMARK  134  A    between atoms: _320  and  _322
REMARK  135  A    between atoms: _322  and  _323
REMARK  136  A    between atoms: _326  and  _328
REMARK  137  A    between atoms: _328  and  _329
REMARK  138  A    between atoms: _328  and  _331
REMARK  139  A    between atoms: _331  and  _332
REMARK  140  A    between atoms: _335  and  _337
REMARK  141  A    between atoms: _337  and  _338
REMARK  142  A    between atoms: _337  and  _340
REMARK  143  A    between atoms: _340  and  _341
REMARK  144  A    between atoms: _344  and  _346
REMARK  145  A    between atoms: _346  and  _347
REMARK  146  A    between atoms: _346  and  _349
REMARK  147  A    between atoms: _349  and  _350
REMARK  148  A    between atoms: _353  and  _355
REMARK  149  A    between atoms: _355  and  _356
REMARK  150  A    between atoms: _355  and  _358
REMARK  151  A    between atoms: _361  and  _363
REMARK  152  A    between atoms: _363  and  _364
REMARK  153  A    between atoms: _363  and  _366
REMARK  154  A    between atoms: _366  and  _367
REMARK  155  A    between atoms: _370  and  _372
REMARK  156  A    between atoms: _372  and  _373
REMARK  157  A    between atoms: _372  and  _375
REMARK  158  A    between atoms: _375  and  _376
REMARK  159  A    between atoms: _379  and  _381
REMARK  160  A    between atoms: _381  and  _382
REMARK  161  A    between atoms: _384  and  _386
REMARK  162  A    between atoms: _386  and  _387
REMARK  163  A    between atoms: _389  and  _391
REMARK  164  A    between atoms: _391  and  _392
REMARK  165  A    between atoms: _391  and  _394
REMARK  166  A    between atoms: _394  and  _395
REMARK  167  A    between atoms: _398  and  _400
REMARK  168  A    between atoms: _400  and  _401
REMARK  169  A    between atoms: _403  and  _405
REMARK  170  A    between atoms: _405  and  _406
REMARK  171  A    between atoms: _408  and  _410
REMARK  172  A    between atoms: _410  and  _411
REMARK  173  A    between atoms: _410  and  _413
REMARK  174  A    between atoms: _413  and  _414
REMARK  175  A    between atoms: _417  and  _419
REMARK  176  A    between atoms: _419  and  _420
REMARK  177  A    between atoms: _419  and  _422
REMARK  178  A    between atoms: _422  and  _423
REMARK  179  A    between atoms: _426  and  _428
REMARK  180  A    between atoms: _428  and  _429
REMARK  181  A    between atoms: _428  and  _431
REMARK  182  A    between atoms: _431  and  _432
REMARK  183  A    between atoms: _436  and  _437
REMARK  184  A    between atoms: _442  and  _444
REMARK  185  A    between atoms: _444  and  _445
REMARK  186  A    between atoms: _444  and  _447
REMARK  187  A    between atoms: _450  and  _452
REMARK  188  A    between atoms: _452  and  _453
REMARK  189  A    between atoms: _452  and  _455
REMARK  190  A    between atoms: _455  and  _456
REMARK  191  A    between atoms: _461  and  _463
REMARK  192  A    between atoms: _463  and  _464
REMARK  193  A    between atoms: _463  and  _466
REMARK  194  A    between atoms: _466  and  _467
REMARK  195  A    between atoms: _470  and  _472
REMARK  196  A    between atoms: _472  and  _473
REMARK  197  A    between atoms: _472  and  _475
REMARK  198  A    between atoms: _475  and  _476
REMARK  199  A    between atoms: _479  and  _481
REMARK  200  A    between atoms: _481  and  _482
REMARK  201  A    between atoms: _484  and  _486
REMARK  202  A    between atoms: _486  and  _487
REMARK  203  A    between atoms: _486  and  _489
REMARK  204  A    between atoms: _489  and  _490
REMARK  205  A    between atoms: _490  and  _491
REMARK  206  A    between atoms: _491  and  _492
REMARK  207  A    between atoms: _501  and  _503
REMARK  208  A    between atoms: _503  and  _504
REMARK  209  A    between atoms: _503  and  _506
REMARK  210  A    between atoms: _506  and  _507
REMARK                            x       y       z     vdW  Elec       q    Type
REMARK                         _______ _______ _______ _____ _____    ______ ____
ROOT
ATOM      1  C   ILE A   5     -16.917  17.272  21.676  0.00  0.00    +0.241 C 
ATOM      2  N   ILE A   6     -17.530  18.443  21.878  0.00  0.00    -0.297 N 
ATOM      3  H   ILE A   6     -18.049  18.602  22.765  0.00  0.00    +0.150 HD
ATOM      4  O   ILE A   5     -16.516  16.887  20.593  0.00  0.00    -0.273 OA
ENDROOT
BRANCH   2   5
ATOM      5  CA  ILE A   6     -17.483  19.506  20.871  0.00  0.00    +0.149 C 
BRANCH   5   6
ATOM      6  C   ILE A   6     -16.328  20.414  21.179  0.00  0.00    +0.241 C 
ATOM      7  O   ILE A   6     -16.272  20.934  22.269  0.00  0.00    -0.273 OA
ATOM      8  N   GLY A   7     -15.418  20.582  20.269  0.00  0.00    -0.295 N 
ATOM      9  H   GLY A   7     -15.571  20.251  19.295  0.00  0.00    +0.150 HD
BRANCH   8  10
ATOM     10  CA  GLY A   7     -14.188  21.240  20.642  0.00  0.00    +0.176 C 
BRANCH  10  11
ATOM     11  C   GLY A   7     -14.104  22.461  19.842  0.00  0.00    +0.243 C 
ATOM     12  N   ARG A   8     -13.032  23.216  19.987  0.00  0.00    -0.297 N 
ATOM     13  H   ARG A   8     -12.214  22.843  20.510  0.00  0.00    +0.150 HD
ATOM     14  O   GLY A   7     -15.009  22.718  19.080  0.00  0.00    -0.273 OA
BRANCH  12  15
ATOM     15  CA  ARG A   8     -12.969  24.550  19.436  0.00  0.00    +0.149 C 
BRANCH  15  16
ATOM     16  C   ARG A   8     -13.274  24.754  17.989  0.00  0.00    +0.241 C 
ATOM     17  O   ARG A   8     -13.719  25.823  17.561  0.00  0.00    -0.273 OA
ATOM     18  N   ASN A   9     -13.089  23.715  17.208  0.00  0.00    -0.298 N 
ATOM     19  H   ASN A   9     -12.746  22.800  17.565  0.00  0.00    +0.150 HD
BRANCH  18  20
ATOM     20  CA  ASN A   9     -13.402  23.942  15.801  0.00  0.00    +0.146 C 
BRANCH  20  21
ATOM     21  C   ASN A   9     -14.866  24.096  15.439  0.00  0.00    +0.227 C 
ATOM     22  O   ASN A   9     -15.229  24.754  14.477  0.00  0.00    -0.286 OA
ENDBRANCH  20  21
BRANCH  20  23
ATOM     23  CB  ASN A   9     -12.845  22.841  14.968  0.00  0.00    +0.112 C 
BRANCH  23  24
ATOM     24  CG  ASN A   9     -13.575  21.570  15.259  0.00  0.00    +0.222 C 
ATOM     25  OD1 ASN A   9     -14.031  21.331  16.365  0.00  0.00    -0.275 OA
ATOM     26  ND2 ASN A   9     -13.728  20.779  14.210  0.00  0.00    -0.329 N 
ATOM     27 HD21 ASN A   9     -14.264  19.893  14.301  0.00  0.00    +0.145 HD
ATOM     28 HD22 ASN A   9     -13.312  21.044  13.294  0.00  0.00    +0.145 HD
ENDBRANCH  23  24
ENDBRANCH  20  23
ENDBRANCH  18  20
ENDBRANCH  15  16
BRANCH  15  29
ATOM     29  CB  ARG A   8     -11.641  25.228  19.727  0.00  0.00    +0.033 C 
BRANCH  29  30
ATOM     30  CG  ARG A   8     -11.494  25.638  21.168  0.00  0.00    +0.045 C 
BRANCH  30  31
ATOM     31  CD  ARG A   8     -10.180  26.404  21.483  0.00  0.00    +0.174 C 
BRANCH  31  32
ATOM     32  NE  ARG A   8      -8.955  25.734  21.072  0.00  0.00    -0.265 N 
ATOM     33  HE  ARG A   8      -8.517  25.015  21.683  0.00  0.00    +0.259 HD
ATOM     34  CZ  ARG A   8      -8.400  26.055  19.899  0.00  0.00    +0.342 C 
ATOM     35  NH2 ARG A   8      -7.308  25.447  19.468  0.00  0.00    -0.292 N 
ATOM     36 HH21 ARG A   8      -6.865  24.704  20.045  0.00  0.00    +0.255 HD
ATOM     37 HH22 ARG A   8      -6.892  25.712  18.552  0.00  0.00    +0.255 HD
ATOM     38  NH1 ARG A   8      -8.922  26.982  19.130  0.00  0.00    -0.292 N 
ATOM     39 HH11 ARG A   8      -9.783  27.482  19.430  0.00  0.00    +0.255 HD
ATOM     40 HH12 ARG A   8      -8.474  27.216  18.221  0.00  0.00    +0.255 HD
ENDBRANCH  31  32
ENDBRANCH  30  31
ENDBRANCH  29  30
ENDBRANCH  15  29
ENDBRANCH  12  15
ENDBRANCH  10  11
ENDBRANCH   8  10
ENDBRANCH   5   6
BRANCH   5  41
ATOM     41  CB  ILE A   6     -18.715  20.422  20.920  0.00  0.00    +0.027 C 
ATOM     42  CG2 ILE A   6     -18.700  21.327  19.668  0.00  0.00    +0.002 C 
BRANCH  41  43
ATOM     43  CG1 ILE A   6     -20.063  19.721  21.103  0.00  0.00    +0.002 C 
ATOM     44  CD1 ILE A   6     -20.389  18.730  19.995  0.00  0.00    +0.000 C 
ENDBRANCH  41  43
ENDBRANCH   5  41
ENDBRANCH   2   5
BRANCH   1  45
ATOM     45  CA  ILE A   5     -16.691  16.358  22.878  0.00  0.00    +0.149 C 
BRANCH  45  48
ATOM     46  C   ASN A   4     -18.237  14.449  23.210  0.00  0.00    +0.241 C 
ATOM     47  O   ASN A   4     -18.904  15.092  24.013  0.00  0.00    -0.273 OA
ATOM     48  N   ILE A   5     -17.176  14.986  22.600  0.00  0.00    -0.297 N 
ATOM     49  H   ILE A   5     -16.667  14.414  21.897  0.00  0.00    +0.150 HD
BRANCH  46  50
ATOM     50  CA  ASN A   4     -18.655  12.992  22.939  0.00  0.00    +0.158 C 
BRANCH  50  52
ATOM     51  C   VAL A   3     -17.671  11.932  24.805  0.00  0.00    +0.241 C 
ATOM     52  N   ASN A   4     -18.767  12.359  24.244  0.00  0.00    -0.297 N 
ATOM     53  H   ASN A   4     -19.689  12.251  24.713  0.00  0.00    +0.150 HD
ATOM     54  O   VAL A   3     -16.616  11.913  24.224  0.00  0.00    -0.273 OA
BRANCH  51  55
ATOM     55  CA  VAL A   3     -17.717  11.430  26.190  0.00  0.00    +0.149 C 
BRANCH  55  58
ATOM     56  C   PRO A   2     -17.198   9.138  26.636  0.00  0.00    +0.241 C 
ATOM     57  O   PRO A   2     -18.325   8.958  27.037  0.00  0.00    -0.273 OA
ATOM     58  N   VAL A   3     -16.812  10.306  26.159  0.00  0.00    -0.297 N 
ATOM     59  H   VAL A   3     -15.857  10.417  25.761  0.00  0.00    +0.150 HD
BRANCH  56  65
ATOM     60  C   THR A   1     -14.867   7.876  24.745  0.00  0.00    +0.244 C 
ATOM     61  N   PRO A   2     -14.921   8.254  26.008  0.00  0.00    -0.272 N 
ATOM     62  CD  PRO A   2     -13.850   8.802  26.856  0.00  0.00    +0.094 C 
ATOM     63  CG  PRO A   2     -14.448   8.841  28.264  0.00  0.00    +0.024 C 
ATOM     64  CB  PRO A   2     -15.618   7.844  28.145  0.00  0.00    +0.031 C 
ATOM     65  CA  PRO A   2     -16.173   8.015  26.730  0.00  0.00    +0.152 C 
ATOM     66  O   THR A   1     -15.675   7.125  24.226  0.00  0.00    -0.273 OA
BRANCH  60  67
ATOM     67  CA  THR A   1     -13.715   8.344  23.920  0.00  0.00    +0.172 C 
BRANCH  67  68
ATOM     68  CB  THR A   1     -13.985   9.687  23.222  0.00  0.00    +0.135 C 
ATOM     69  CG2 THR A   1     -15.124   9.614  22.228  0.00  0.00    +0.034 C 
BRANCH  68  70
ATOM     70  OG1 THR A   1     -14.243  10.676  24.189  0.00  0.00    -0.383 OA
ATOM     71  HG1 THR A   1     -15.036  10.416  24.722  0.00  0.00    +0.210 HD
ENDBRANCH  68  70
ENDBRANCH  67  68
BRANCH  67  72
ATOM     72  N   THR A   1     -13.748   7.295  22.933  0.00  0.00    -0.236 NA
ATOM     73  H   THR A   1     -14.662   6.834  22.751  0.00  0.00    +0.142 HD
ENDBRANCH  67  72
ENDBRANCH  60  67
ENDBRANCH  56  65
ENDBRANCH  55  58
BRANCH  55  74
ATOM     74  CB  VAL A   3     -17.141  12.464  27.138  0.00  0.00    +0.027 C 
ATOM     75  CG2 VAL A   3     -17.221  11.959  28.568  0.00  0.00    +0.002 C 
ATOM     76  CG1 VAL A   3     -17.988  13.698  27.197  0.00  0.00    +0.002 C 
ENDBRANCH  55  74
ENDBRANCH  51  55
ENDBRANCH  50  52
BRANCH  50  77
ATOM     77  CB  ASN A   4     -20.081  13.057  22.385  0.00  0.00    +0.114 C 
BRANCH  77  78
ATOM     78  CG  ASN A   4     -20.772  11.750  22.145  0.00  0.00    +0.222 C 
ATOM     79  ND2 ASN A   4     -21.785  11.478  22.933  0.00  0.00    -0.329 N 
ATOM     80 HD21 ASN A   4     -22.084  12.167  23.653  0.00  0.00    +0.145 HD
ATOM     81 HD22 ASN A   4     -22.289  10.573  22.838  0.00  0.00    +0.145 HD
ATOM     82  OD1 ASN A   4     -20.395  10.971  21.294  0.00  0.00    -0.275 OA
ENDBRANCH  77  78
ENDBRANCH  50  77
ENDBRANCH  46  50
ENDBRANCH  45  48
BRANCH  45  83
ATOM     83  CB  ILE A   5     -15.174  16.265  23.160  0.00  0.00    +0.027 C 
ATOM     84  CG2 ILE A   5     -14.434  17.586  23.050  0.00  0.00    +0.002 C 
BRANCH  83  85
ATOM     85  CG1 ILE A   5     -14.934  15.663  24.556  0.00  0.00    +0.002 C 
ATOM     86  CD1 ILE A   5     -13.721  14.765  24.578  0.00  0.00    +0.000 C 
ENDBRANCH  83  85
ENDBRANCH  45  83
ENDBRANCH   1  45
TORSDOF 32
