REMARK  Name = ../refined-set-2016/4g0z/4g0z_pocket.pdb
REMARK  128 active torsions:
REMARK  status: ('A' for Active; 'I' for Inactive)
REMARK    1  A    between atoms: _1  and  _3
REMARK    2  A    between atoms: _3  and  _4
REMARK    3  A    between atoms: _3  and  _6
REMARK    4  A    between atoms: _6  and  _7
REMARK    5  A    between atoms: _10  and  _12
REMARK    6  A    between atoms: _12  and  _13
REMARK    7  A    between atoms: _12  and  _15
REMARK    8  A    between atoms: _15  and  _16
REMARK    9  A    between atoms: _19  and  _21
REMARK   10  A    between atoms: _21  and  _22
REMARK   11  A    between atoms: _21  and  _24
REMARK   12  A    between atoms: _27  and  _29
REMARK   13  A    between atoms: _29  and  _30
REMARK   14  A    between atoms: _29  and  _32
REMARK   15  A    between atoms: _32  and  _33
REMARK   16  A    between atoms: _37  and  _38
REMARK   17  A    between atoms: _43  and  _45
REMARK   18  A    between atoms: _45  and  _46
REMARK   19  A    between atoms: _45  and  _48
REMARK   20  A    between atoms: _48  and  _49
REMARK   21  A    between atoms: _52  and  _54
REMARK   22  A    between atoms: _54  and  _55
REMARK   23  A    between atoms: _54  and  _57
REMARK   24  A    between atoms: _57  and  _58
REMARK   25  A    between atoms: _63  and  _65
REMARK   26  A    between atoms: _65  and  _66
REMARK   27  A    between atoms: _65  and  _68
REMARK   28  A    between atoms: _68  and  _69
REMARK   29  A    between atoms: _74  and  _76
REMARK   30  A    between atoms: _76  and  _77
REMARK   31  A    between atoms: _79  and  _81
REMARK   32  A    between atoms: _81  and  _82
REMARK   33  A    between atoms: _81  and  _84
REMARK   34  A    between atoms: _84  and  _85
REMARK   35  A    between atoms: _87  and  _89
REMARK   36  A    between atoms: _89  and  _90
REMARK   37  A    between atoms: _89  and  _92
REMARK   38  A    between atoms: _92  and  _93
REMARK   39  A    between atoms: _96  and  _98
REMARK   40  A    between atoms: _98  and  _99
REMARK   41  A    between atoms: _98  and  _101
REMARK   42  A    between atoms: _101  and  _102
REMARK   43  A    between atoms: _107  and  _108
REMARK   44  A    between atoms: _110  and  _112
REMARK   45  A    between atoms: _112  and  _113
REMARK   46  A    between atoms: _115  and  _117
REMARK   47  A    between atoms: _117  and  _118
REMARK   48  A    between atoms: _117  and  _120
REMARK   49  A    between atoms: _120  and  _121
REMARK   50  A    between atoms: _124  and  _126
REMARK   51  A    between atoms: _126  and  _127
REMARK   52  A    between atoms: _126  and  _129
REMARK   53  A    between atoms: _129  and  _130
REMARK   54  A    between atoms: _133  and  _135
REMARK   55  A    between atoms: _135  and  _136
REMARK   56  A    between atoms: _135  and  _138
REMARK   57  A    between atoms: _138  and  _139
REMARK   58  A    between atoms: _139  and  _140
REMARK   59  A    between atoms: _140  and  _141
REMARK   60  A    between atoms: _141  and  _142
REMARK   61  A    between atoms: _146  and  _148
REMARK   62  A    between atoms: _148  and  _149
REMARK   63  A    between atoms: _148  and  _151
REMARK   64  A    between atoms: _151  and  _152
REMARK   65  A    between atoms: _152  and  _153
REMARK   66  A    between atoms: _156  and  _158
REMARK   67  A    between atoms: _158  and  _159
REMARK   68  A    between atoms: _158  and  _161
REMARK   69  A    between atoms: _164  and  _166
REMARK   70  A    between atoms: _166  and  _167
REMARK   71  A    between atoms: _166  and  _169
REMARK   72  A    between atoms: _169  and  _170
REMARK   73  A    between atoms: _172  and  _174
REMARK   74  A    between atoms: _174  and  _175
REMARK   75  A    between atoms: _174  and  _177
REMARK   76  A    between atoms: _177  and  _178
REMARK   77  A    between atoms: _178  and  _179
REMARK   78  A    between atoms: _184  and  _186
REMARK   79  A    between atoms: _186  and  _187
REMARK   80  A    between atoms: _186  and  _189
REMARK   81  A    between atoms: _191  and  _193
REMARK   82  A    between atoms: _193  and  _194
REMARK   83  A    between atoms: _193  and  _196
REMARK   84  A    between atoms: _198  and  _200
REMARK   85  A    between atoms: _200  and  _201
REMARK   86  A    between atoms: _200  and  _203
REMARK   87  A    between atoms: _203  and  _204
REMARK   88  A    between atoms: _207  and  _209
REMARK   89  A    between atoms: _209  and  _210
REMARK   90  A    between atoms: _209  and  _212
REMARK   91  A    between atoms: _212  and  _213
REMARK   92  A    between atoms: _216  and  _218
REMARK   93  A    between atoms: _218  and  _219
REMARK   94  A    between atoms: _218  and  _221
REMARK   95  A    between atoms: _221  and  _222
REMARK   96  A    between atoms: _222  and  _223
REMARK   97  A    between atoms: _223  and  _224
REMARK   98  A    between atoms: _224  and  _225
REMARK   99  A    between atoms: _229  and  _231
REMARK  100  A    between atoms: _231  and  _232
REMARK  101  A    between atoms: _231  and  _234
REMARK  102  A    between atoms: _234  and  _235
REMARK  103  A    between atoms: _240  and  _242
REMARK  104  A    between atoms: _242  and  _243
REMARK  105  A    between atoms: _242  and  _245
REMARK  106  A    between atoms: _245  and  _246
REMARK  107  A    between atoms: _251  and  _252
REMARK  108  A    between atoms: _254  and  _256
REMARK  109  A    between atoms: _256  and  _257
REMARK  110  A    between atoms: _256  and  _259
REMARK  111  A    between atoms: _262  and  _264
REMARK  112  A    between atoms: _264  and  _265
REMARK  113  A    between atoms: _264  and  _267
REMARK  114  A    between atoms: _267  and  _268
REMARK  115  A    between atoms: _268  and  _269
REMARK  116  A    between atoms: _269  and  _270
REMARK  117  A    between atoms: _270  and  _271
REMARK  118  A    between atoms: _275  and  _277
REMARK  119  A    between atoms: _277  and  _278
REMARK  120  A    between atoms: _277  and  _280
REMARK  121  A    between atoms: _280  and  _281
REMARK  122  A    between atoms: _284  and  _286
REMARK  123  A    between atoms: _286  and  _287
REMARK  124  A    between atoms: _286  and  _289
REMARK  125  A    between atoms: _289  and  _290
REMARK  126  A    between atoms: _290  and  _291
REMARK  127  A    between atoms: _291  and  _292
REMARK  128  A    between atoms: _292  and  _293
REMARK                            x       y       z     vdW  Elec       q    Type
REMARK                         _______ _______ _______ _____ _____    ______ ____
ROOT
ATOM      1  C   LEU A   1      14.864  37.134  42.768  0.00  0.00    +0.238 C 
ATOM      2  O   LEU A   1      14.110  36.900  43.710  0.00  0.00    -0.274 OA
ATOM      3  N   LEU A   2      15.526  36.194  42.098  0.00  0.00    -0.298 N 
ATOM      4  H   LEU A   2      15.990  36.450  41.203  0.00  0.00    +0.150 HD
ENDROOT
BRANCH   1   5
ATOM      5  CA  LEU A   1      15.103  38.563  42.313  0.00  0.00    +0.145 C 
BRANCH   5   6
ATOM      6  N   LEU A   1      13.855  39.312  42.253  0.00  0.00    -0.238 NA
ATOM      7  H   LEU A   1      13.022  38.975  42.776  0.00  0.00    +0.142 HD
ENDBRANCH   5   6
BRANCH   5   8
ATOM      8  CB  LEU A   1      16.066  39.245  43.287  0.00  0.00    +0.026 C 
BRANCH   8   9
ATOM      9  CG  LEU A   1      17.365  38.504  43.611  0.00  0.00    +0.002 C 
ATOM     10  CD2 LEU A   1      18.065  39.175  44.791  0.00  0.00    +0.000 C 
ATOM     11  CD1 LEU A   1      18.284  38.472  42.382  0.00  0.00    +0.000 C 
ENDBRANCH   8   9
ENDBRANCH   5   8
ENDBRANCH   1   5
BRANCH   3  12
ATOM     12  CA  LEU A   2      15.627  34.811  42.573  0.00  0.00    +0.137 C 
BRANCH  12  13
ATOM     13  C   LEU A   2      17.082  34.566  42.953  0.00  0.00    +0.227 C 
ATOM     14  O   LEU A   2      17.980  34.757  42.129  0.00  0.00    -0.286 OA
ENDBRANCH  12  13
BRANCH  12  15
ATOM     15  CB  LEU A   2      15.197  33.812  41.481  0.00  0.00    +0.028 C 
BRANCH  15  16
ATOM     16  CG  LEU A   2      15.599  32.343  41.676  0.00  0.00    +0.002 C 
ATOM     17  CD2 LEU A   2      14.856  31.721  42.854  0.00  0.00    +0.000 C 
ATOM     18  CD1 LEU A   2      15.350  31.516  40.409  0.00  0.00    +0.000 C 
ENDBRANCH  15  16
ENDBRANCH  12  15
ENDBRANCH   3  12
TORSDOF 8
REMARK  Name = ../refined-set-2016/4g0z/4g0z_pocket.pdb
REMARK  128 active torsions:
REMARK  status: ('A' for Active; 'I' for Inactive)
REMARK    1  A    between atoms: _1  and  _3
REMARK    2  A    between atoms: _3  and  _4
REMARK    3  A    between atoms: _3  and  _6
REMARK    4  A    between atoms: _6  and  _7
REMARK    5  A    between atoms: _10  and  _12
REMARK    6  A    between atoms: _12  and  _13
REMARK    7  A    between atoms: _12  and  _15
REMARK    8  A    between atoms: _15  and  _16
REMARK    9  A    between atoms: _19  and  _21
REMARK   10  A    between atoms: _21  and  _22
REMARK   11  A    between atoms: _21  and  _24
REMARK   12  A    between atoms: _27  and  _29
REMARK   13  A    between atoms: _29  and  _30
REMARK   14  A    between atoms: _29  and  _32
REMARK   15  A    between atoms: _32  and  _33
REMARK   16  A    between atoms: _37  and  _38
REMARK   17  A    between atoms: _43  and  _45
REMARK   18  A    between atoms: _45  and  _46
REMARK   19  A    between atoms: _45  and  _48
REMARK   20  A    between atoms: _48  and  _49
REMARK   21  A    between atoms: _52  and  _54
REMARK   22  A    between atoms: _54  and  _55
REMARK   23  A    between atoms: _54  and  _57
REMARK   24  A    between atoms: _57  and  _58
REMARK   25  A    between atoms: _63  and  _65
REMARK   26  A    between atoms: _65  and  _66
REMARK   27  A    between atoms: _65  and  _68
REMARK   28  A    between atoms: _68  and  _69
REMARK   29  A    between atoms: _74  and  _76
REMARK   30  A    between atoms: _76  and  _77
REMARK   31  A    between atoms: _79  and  _81
REMARK   32  A    between atoms: _81  and  _82
REMARK   33  A    between atoms: _81  and  _84
REMARK   34  A    between atoms: _84  and  _85
REMARK   35  A    between atoms: _87  and  _89
REMARK   36  A    between atoms: _89  and  _90
REMARK   37  A    between atoms: _89  and  _92
REMARK   38  A    between atoms: _92  and  _93
REMARK   39  A    between atoms: _96  and  _98
REMARK   40  A    between atoms: _98  and  _99
REMARK   41  A    between atoms: _98  and  _101
REMARK   42  A    between atoms: _101  and  _102
REMARK   43  A    between atoms: _107  and  _108
REMARK   44  A    between atoms: _110  and  _112
REMARK   45  A    between atoms: _112  and  _113
REMARK   46  A    between atoms: _115  and  _117
REMARK   47  A    between atoms: _117  and  _118
REMARK   48  A    between atoms: _117  and  _120
REMARK   49  A    between atoms: _120  and  _121
REMARK   50  A    between atoms: _124  and  _126
REMARK   51  A    between atoms: _126  and  _127
REMARK   52  A    between atoms: _126  and  _129
REMARK   53  A    between atoms: _129  and  _130
REMARK   54  A    between atoms: _133  and  _135
REMARK   55  A    between atoms: _135  and  _136
REMARK   56  A    between atoms: _135  and  _138
REMARK   57  A    between atoms: _138  and  _139
REMARK   58  A    between atoms: _139  and  _140
REMARK   59  A    between atoms: _140  and  _141
REMARK   60  A    between atoms: _141  and  _142
REMARK   61  A    between atoms: _146  and  _148
REMARK   62  A    between atoms: _148  and  _149
REMARK   63  A    between atoms: _148  and  _151
REMARK   64  A    between atoms: _151  and  _152
REMARK   65  A    between atoms: _152  and  _153
REMARK   66  A    between atoms: _156  and  _158
REMARK   67  A    between atoms: _158  and  _159
REMARK   68  A    between atoms: _158  and  _161
REMARK   69  A    between atoms: _164  and  _166
REMARK   70  A    between atoms: _166  and  _167
REMARK   71  A    between atoms: _166  and  _169
REMARK   72  A    between atoms: _169  and  _170
REMARK   73  A    between atoms: _172  and  _174
REMARK   74  A    between atoms: _174  and  _175
REMARK   75  A    between atoms: _174  and  _177
REMARK   76  A    between atoms: _177  and  _178
REMARK   77  A    between atoms: _178  and  _179
REMARK   78  A    between atoms: _184  and  _186
REMARK   79  A    between atoms: _186  and  _187
REMARK   80  A    between atoms: _186  and  _189
REMARK   81  A    between atoms: _191  and  _193
REMARK   82  A    between atoms: _193  and  _194
REMARK   83  A    between atoms: _193  and  _196
REMARK   84  A    between atoms: _198  and  _200
REMARK   85  A    between atoms: _200  and  _201
REMARK   86  A    between atoms: _200  and  _203
REMARK   87  A    between atoms: _203  and  _204
REMARK   88  A    between atoms: _207  and  _209
REMARK   89  A    between atoms: _209  and  _210
REMARK   90  A    between atoms: _209  and  _212
REMARK   91  A    between atoms: _212  and  _213
REMARK   92  A    between atoms: _216  and  _218
REMARK   93  A    between atoms: _218  and  _219
REMARK   94  A    between atoms: _218  and  _221
REMARK   95  A    between atoms: _221  and  _222
REMARK   96  A    between atoms: _222  and  _223
REMARK   97  A    between atoms: _223  and  _224
REMARK   98  A    between atoms: _224  and  _225
REMARK   99  A    between atoms: _229  and  _231
REMARK  100  A    between atoms: _231  and  _232
REMARK  101  A    between atoms: _231  and  _234
REMARK  102  A    between atoms: _234  and  _235
REMARK  103  A    between atoms: _240  and  _242
REMARK  104  A    between atoms: _242  and  _243
REMARK  105  A    between atoms: _242  and  _245
REMARK  106  A    between atoms: _245  and  _246
REMARK  107  A    between atoms: _251  and  _252
REMARK  108  A    between atoms: _254  and  _256
REMARK  109  A    between atoms: _256  and  _257
REMARK  110  A    between atoms: _256  and  _259
REMARK  111  A    between atoms: _262  and  _264
REMARK  112  A    between atoms: _264  and  _265
REMARK  113  A    between atoms: _264  and  _267
REMARK  114  A    between atoms: _267  and  _268
REMARK  115  A    between atoms: _268  and  _269
REMARK  116  A    between atoms: _269  and  _270
REMARK  117  A    between atoms: _270  and  _271
REMARK  118  A    between atoms: _275  and  _277
REMARK  119  A    between atoms: _277  and  _278
REMARK  120  A    between atoms: _277  and  _280
REMARK  121  A    between atoms: _280  and  _281
REMARK  122  A    between atoms: _284  and  _286
REMARK  123  A    between atoms: _286  and  _287
REMARK  124  A    between atoms: _286  and  _289
REMARK  125  A    between atoms: _289  and  _290
REMARK  126  A    between atoms: _290  and  _291
REMARK  127  A    between atoms: _291  and  _292
REMARK  128  A    between atoms: _292  and  _293
REMARK                            x       y       z     vdW  Elec       q    Type
REMARK                         _______ _______ _______ _____ _____    ______ ____
ROOT
ATOM      1  CA  VAL A   1      19.836  30.278  43.766  0.00  0.00    +0.133 C 
ENDROOT
BRANCH   1   2
ATOM      2  CB  VAL A   1      19.832  29.815  42.295  0.00  0.00    +0.023 C 
ATOM      3  CG2 VAL A   1      19.893  28.275  42.227  0.00  0.00    +0.002 C 
ATOM      4  CG1 VAL A   1      18.576  30.313  41.576  0.00  0.00    +0.002 C 
ENDBRANCH   1   2
BRANCH   1   5
ATOM      5  N   VAL A   1      19.710  31.731  43.898  0.00  0.00    -0.239 NA
ATOM      6  H   VAL A   1      20.415  32.353  43.454  0.00  0.00    +0.142 HD
ENDBRANCH   1   5
BRANCH   1   7
ATOM      7  C   VAL A   1      21.115  29.790  44.403  0.00  0.00    +0.224 C 
ATOM      8  O   VAL A   1      22.206  30.255  44.068  0.00  0.00    -0.287 OA
ENDBRANCH   1   7
TORSDOF 3
REMARK  Name = ../refined-set-2016/4g0z/4g0z_pocket.pdb
REMARK  128 active torsions:
REMARK  status: ('A' for Active; 'I' for Inactive)
REMARK    1  A    between atoms: _1  and  _3
REMARK    2  A    between atoms: _3  and  _4
REMARK    3  A    between atoms: _3  and  _6
REMARK    4  A    between atoms: _6  and  _7
REMARK    5  A    between atoms: _10  and  _12
REMARK    6  A    between atoms: _12  and  _13
REMARK    7  A    between atoms: _12  and  _15
REMARK    8  A    between atoms: _15  and  _16
REMARK    9  A    between atoms: _19  and  _21
REMARK   10  A    between atoms: _21  and  _22
REMARK   11  A    between atoms: _21  and  _24
REMARK   12  A    between atoms: _27  and  _29
REMARK   13  A    between atoms: _29  and  _30
REMARK   14  A    between atoms: _29  and  _32
REMARK   15  A    between atoms: _32  and  _33
REMARK   16  A    between atoms: _37  and  _38
REMARK   17  A    between atoms: _43  and  _45
REMARK   18  A    between atoms: _45  and  _46
REMARK   19  A    between atoms: _45  and  _48
REMARK   20  A    between atoms: _48  and  _49
REMARK   21  A    between atoms: _52  and  _54
REMARK   22  A    between atoms: _54  and  _55
REMARK   23  A    between atoms: _54  and  _57
REMARK   24  A    between atoms: _57  and  _58
REMARK   25  A    between atoms: _63  and  _65
REMARK   26  A    between atoms: _65  and  _66
REMARK   27  A    between atoms: _65  and  _68
REMARK   28  A    between atoms: _68  and  _69
REMARK   29  A    between atoms: _74  and  _76
REMARK   30  A    between atoms: _76  and  _77
REMARK   31  A    between atoms: _79  and  _81
REMARK   32  A    between atoms: _81  and  _82
REMARK   33  A    between atoms: _81  and  _84
REMARK   34  A    between atoms: _84  and  _85
REMARK   35  A    between atoms: _87  and  _89
REMARK   36  A    between atoms: _89  and  _90
REMARK   37  A    between atoms: _89  and  _92
REMARK   38  A    between atoms: _92  and  _93
REMARK   39  A    between atoms: _96  and  _98
REMARK   40  A    between atoms: _98  and  _99
REMARK   41  A    between atoms: _98  and  _101
REMARK   42  A    between atoms: _101  and  _102
REMARK   43  A    between atoms: _107  and  _108
REMARK   44  A    between atoms: _110  and  _112
REMARK   45  A    between atoms: _112  and  _113
REMARK   46  A    between atoms: _115  and  _117
REMARK   47  A    between atoms: _117  and  _118
REMARK   48  A    between atoms: _117  and  _120
REMARK   49  A    between atoms: _120  and  _121
REMARK   50  A    between atoms: _124  and  _126
REMARK   51  A    between atoms: _126  and  _127
REMARK   52  A    between atoms: _126  and  _129
REMARK   53  A    between atoms: _129  and  _130
REMARK   54  A    between atoms: _133  and  _135
REMARK   55  A    between atoms: _135  and  _136
REMARK   56  A    between atoms: _135  and  _138
REMARK   57  A    between atoms: _138  and  _139
REMARK   58  A    between atoms: _139  and  _140
REMARK   59  A    between atoms: _140  and  _141
REMARK   60  A    between atoms: _141  and  _142
REMARK   61  A    between atoms: _146  and  _148
REMARK   62  A    between atoms: _148  and  _149
REMARK   63  A    between atoms: _148  and  _151
REMARK   64  A    between atoms: _151  and  _152
REMARK   65  A    between atoms: _152  and  _153
REMARK   66  A    between atoms: _156  and  _158
REMARK   67  A    between atoms: _158  and  _159
REMARK   68  A    between atoms: _158  and  _161
REMARK   69  A    between atoms: _164  and  _166
REMARK   70  A    between atoms: _166  and  _167
REMARK   71  A    between atoms: _166  and  _169
REMARK   72  A    between atoms: _169  and  _170
REMARK   73  A    between atoms: _172  and  _174
REMARK   74  A    between atoms: _174  and  _175
REMARK   75  A    between atoms: _174  and  _177
REMARK   76  A    between atoms: _177  and  _178
REMARK   77  A    between atoms: _178  and  _179
REMARK   78  A    between atoms: _184  and  _186
REMARK   79  A    between atoms: _186  and  _187
REMARK   80  A    between atoms: _186  and  _189
REMARK   81  A    between atoms: _191  and  _193
REMARK   82  A    between atoms: _193  and  _194
REMARK   83  A    between atoms: _193  and  _196
REMARK   84  A    between atoms: _198  and  _200
REMARK   85  A    between atoms: _200  and  _201
REMARK   86  A    between atoms: _200  and  _203
REMARK   87  A    between atoms: _203  and  _204
REMARK   88  A    between atoms: _207  and  _209
REMARK   89  A    between atoms: _209  and  _210
REMARK   90  A    between atoms: _209  and  _212
REMARK   91  A    between atoms: _212  and  _213
REMARK   92  A    between atoms: _216  and  _218
REMARK   93  A    between atoms: _218  and  _219
REMARK   94  A    between atoms: _218  and  _221
REMARK   95  A    between atoms: _221  and  _222
REMARK   96  A    between atoms: _222  and  _223
REMARK   97  A    between atoms: _223  and  _224
REMARK   98  A    between atoms: _224  and  _225
REMARK   99  A    between atoms: _229  and  _231
REMARK  100  A    between atoms: _231  and  _232
REMARK  101  A    between atoms: _231  and  _234
REMARK  102  A    between atoms: _234  and  _235
REMARK  103  A    between atoms: _240  and  _242
REMARK  104  A    between atoms: _242  and  _243
REMARK  105  A    between atoms: _242  and  _245
REMARK  106  A    between atoms: _245  and  _246
REMARK  107  A    between atoms: _251  and  _252
REMARK  108  A    between atoms: _254  and  _256
REMARK  109  A    between atoms: _256  and  _257
REMARK  110  A    between atoms: _256  and  _259
REMARK  111  A    between atoms: _262  and  _264
REMARK  112  A    between atoms: _264  and  _265
REMARK  113  A    between atoms: _264  and  _267
REMARK  114  A    between atoms: _267  and  _268
REMARK  115  A    between atoms: _268  and  _269
REMARK  116  A    between atoms: _269  and  _270
REMARK  117  A    between atoms: _270  and  _271
REMARK  118  A    between atoms: _275  and  _277
REMARK  119  A    between atoms: _277  and  _278
REMARK  120  A    between atoms: _277  and  _280
REMARK  121  A    between atoms: _280  and  _281
REMARK  122  A    between atoms: _284  and  _286
REMARK  123  A    between atoms: _286  and  _287
REMARK  124  A    between atoms: _286  and  _289
REMARK  125  A    between atoms: _289  and  _290
REMARK  126  A    between atoms: _290  and  _291
REMARK  127  A    between atoms: _291  and  _292
REMARK  128  A    between atoms: _292  and  _293
REMARK                            x       y       z     vdW  Elec       q    Type
REMARK                         _______ _______ _______ _____ _____    ______ ____
ROOT
ATOM      1  C   SER A   7      22.948  22.530  33.933  0.00  0.00    +0.243 C 
ATOM      2  N   LEU A   8      22.998  22.433  35.257  0.00  0.00    -0.297 N 
ATOM      3  H   LEU A   8      23.712  21.820  35.700  0.00  0.00    +0.150 HD
ATOM      4  O   SER A   7      22.170  23.293  33.354  0.00  0.00    -0.273 OA
ENDROOT
BRANCH   2   5
ATOM      5  CA  LEU A   8      22.062  23.177  36.100  0.00  0.00    +0.149 C 
BRANCH   5   6
ATOM      6  C   LEU A   8      22.168  24.694  35.918  0.00  0.00    +0.241 C 
ATOM      7  N   TYR A   9      23.380  25.234  35.964  0.00  0.00    -0.297 N 
ATOM      8  H   TYR A   9      24.214  24.633  36.122  0.00  0.00    +0.150 HD
ATOM      9  O   LEU A   8      21.158  25.372  35.748  0.00  0.00    -0.273 OA
BRANCH   7  10
ATOM     10  CA  TYR A   9      23.538  26.680  35.792  0.00  0.00    +0.153 C 
BRANCH  10  11
ATOM     11  C   TYR A   9      22.876  27.154  34.486  0.00  0.00    +0.241 C 
ATOM     12  O   TYR A   9      22.088  28.105  34.482  0.00  0.00    -0.273 OA
ATOM     13  N   GLY A  10      23.198  26.487  33.384  0.00  0.00    -0.295 N 
ATOM     14  H   GLY A  10      23.863  25.690  33.448  0.00  0.00    +0.150 HD
BRANCH  13  15
ATOM     15  CA  GLY A  10      22.640  26.847  32.089  0.00  0.00    +0.176 C 
BRANCH  15  16
ATOM     16  C   GLY A  10      21.132  26.709  32.009  0.00  0.00    +0.243 C 
ATOM     17  N   ASP A  11      20.608  25.617  32.559  0.00  0.00    -0.296 N 
ATOM     18  H   ASP A  11      21.243  24.899  32.964  0.00  0.00    +0.150 HD
ATOM     19  O   GLY A  10      20.447  27.573  31.444  0.00  0.00    -0.273 OA
BRANCH  17  20
ATOM     20  CA  ASP A  11      19.157  25.398  32.610  0.00  0.00    +0.160 C 
BRANCH  20  21
ATOM     21  C   ASP A  11      18.476  26.532  33.373  0.00  0.00    +0.241 C 
ATOM     22  N   LEU A  12      19.037  26.831  34.534  0.00  0.00    -0.297 N 
ATOM     23  H   LEU A  12      19.857  26.273  34.847  0.00  0.00    +0.150 HD
ATOM     24  O   ASP A  11      17.487  27.109  32.930  0.00  0.00    -0.273 OA
BRANCH  22  25
ATOM     25  CA  LEU A  12      18.559  27.907  35.396  0.00  0.00    +0.149 C 
BRANCH  25  26
ATOM     26  C   LEU A  12      18.438  29.212  34.623  0.00  0.00    +0.241 C 
ATOM     27  O   LEU A  12      17.385  29.865  34.621  0.00  0.00    -0.273 OA
ATOM     28  N   LYS A  13      19.531  29.602  33.985  0.00  0.00    -0.298 N 
ATOM     29  H   LYS A  13      20.371  28.989  33.982  0.00  0.00    +0.150 HD
BRANCH  28  30
ATOM     30  CA  LYS A  13      19.569  30.882  33.287  0.00  0.00    +0.137 C 
BRANCH  30  31
ATOM     31  C   LYS A  13      18.617  30.918  32.096  0.00  0.00    +0.227 C 
ATOM     32  O   LYS A  13      17.990  31.940  31.831  0.00  0.00    -0.286 OA
ENDBRANCH  30  31
BRANCH  30  33
ATOM     33  CB  LYS A  13      21.000  31.210  32.852  0.00  0.00    +0.028 C 
BRANCH  33  34
ATOM     34  CG  LYS A  13      21.928  31.488  34.024  0.00  0.00    -0.000 C 
BRANCH  34  35
ATOM     35  CD  LYS A  13      21.455  32.703  34.829  0.00  0.00    -0.024 C 
BRANCH  35  36
ATOM     36  CE  LYS A  13      22.319  32.905  36.068  0.00  0.00    -0.086 C 
BRANCH  36  37
ATOM     37  NZ  LYS A  13      22.007  34.167  36.797  0.00  0.00    +0.380 N 
ATOM     38  HZ1 LYS A  13      22.626  34.248  37.629  0.00  0.00    -0.089 HD
ATOM     39  HZ2 LYS A  13      21.013  34.152  37.103  0.00  0.00    -0.089 HD
ATOM     40  HZ3 LYS A  13      22.164  34.978  36.166  0.00  0.00    -0.089 HD
ENDBRANCH  36  37
ENDBRANCH  35  36
ENDBRANCH  34  35
ENDBRANCH  33  34
ENDBRANCH  30  33
ENDBRANCH  28  30
ENDBRANCH  25  26
BRANCH  25  41
ATOM     41  CB  LEU A  12      19.548  28.107  36.544  0.00  0.00    +0.029 C 
BRANCH  41  42
ATOM     42  CG  LEU A  12      19.140  27.931  38.005  0.00  0.00    +0.002 C 
ATOM     43  CD2 LEU A  12      20.190  27.091  38.739  0.00  0.00    +0.000 C 
ATOM     44  CD1 LEU A  12      17.747  27.364  38.184  0.00  0.00    +0.000 C 
ENDBRANCH  41  42
ENDBRANCH  25  41
ENDBRANCH  22  25
ENDBRANCH  20  21
BRANCH  20  45
ATOM     45  CB  ASP A  11      18.841  24.065  33.295  0.00  0.00    +0.143 C 
BRANCH  45  46
ATOM     46  CG  ASP A  11      19.282  22.864  32.476  0.00  0.00    +0.367 C 
ATOM     47  OD2 ASP A  11      19.354  21.752  33.053  0.00  0.00    -0.246 OA
ATOM     48  OD1 ASP A  11      19.547  23.035  31.263  0.00  0.00    -0.246 OA
ENDBRANCH  45  46
ENDBRANCH  20  45
ENDBRANCH  17  20
ENDBRANCH  15  16
ENDBRANCH  13  15
ENDBRANCH  10  11
BRANCH  10  49
ATOM     49  CB  TYR A   9      25.014  27.088  35.836  0.00  0.00    +0.055 C 
BRANCH  49  50
ATOM     50  CG  TYR A   9      25.241  28.578  35.646  0.00  0.00    -0.020 A 
ATOM     51  CD2 TYR A   9      25.275  29.444  36.731  0.00  0.00    -0.001 A 
ATOM     52  CE2 TYR A   9      25.476  30.810  36.552  0.00  0.00    +0.036 A 
ATOM     53  CZ  TYR A   9      25.651  31.306  35.272  0.00  0.00    +0.134 A 
ATOM     54  CE1 TYR A   9      25.622  30.460  34.187  0.00  0.00    +0.036 A 
ATOM     55  CD1 TYR A   9      25.420  29.110  34.378  0.00  0.00    -0.001 A 
BRANCH  53  56
ATOM     56  OH  TYR A   9      25.856  32.647  35.058  0.00  0.00    -0.506 OA
ATOM     57  HH  TYR A   9      25.080  33.157  35.400  0.00  0.00    +0.292 HD
ENDBRANCH  53  56
ENDBRANCH  49  50
ENDBRANCH  10  49
ENDBRANCH   7  10
ENDBRANCH   5   6
BRANCH   5  58
ATOM     58  CB  LEU A   8      22.255  22.810  37.569  0.00  0.00    +0.029 C 
BRANCH  58  59
ATOM     59  CG  LEU A   8      21.387  23.549  38.586  0.00  0.00    +0.002 C 
ATOM     60  CD2 LEU A   8      21.768  23.116  40.012  0.00  0.00    +0.000 C 
ATOM     61  CD1 LEU A   8      19.895  23.316  38.319  0.00  0.00    +0.000 C 
ENDBRANCH  58  59
ENDBRANCH   5  58
ENDBRANCH   2   5
BRANCH   1  62
ATOM     62  CA  SER A   7      23.907  21.637  33.134  0.00  0.00    +0.178 C 
BRANCH  62  65
ATOM     63  C   GLY A   6      25.957  21.243  34.406  0.00  0.00    +0.243 C 
ATOM     64  O   GLY A   6      26.354  22.392  34.217  0.00  0.00    -0.273 OA
ATOM     65  N   SER A   7      24.770  20.806  33.981  0.00  0.00    -0.295 N 
ATOM     66  H   SER A   7      24.450  19.856  34.256  0.00  0.00    +0.150 HD
BRANCH  63  67
ATOM     67  CA  GLY A   6      26.829  20.253  35.159  0.00  0.00    +0.176 C 
BRANCH  67  70
ATOM     68  C   ASN A   5      26.128  20.918  37.368  0.00  0.00    +0.241 C 
ATOM     69  O   ASN A   5      24.945  20.822  37.043  0.00  0.00    -0.273 OA
ATOM     70  N   GLY A   6      27.120  20.683  36.515  0.00  0.00    -0.295 N 
ATOM     71  H   GLY A   6      28.107  20.807  36.819  0.00  0.00    +0.150 HD
BRANCH  68  72
ATOM     72  CA  ASN A   5      26.506  21.318  38.793  0.00  0.00    +0.158 C 
BRANCH  72  75
ATOM     73  C   ASN A   4      28.494  20.829  40.070  0.00  0.00    +0.241 C 
ATOM     74  O   ASN A   4      27.921  19.915  40.667  0.00  0.00    -0.273 OA
ATOM     75  N   ASN A   5      27.929  21.487  39.062  0.00  0.00    -0.297 N 
ATOM     76  H   ASN A   5      28.501  22.120  38.467  0.00  0.00    +0.150 HD
BRANCH  73  77
ATOM     77  CA  ASN A   4      29.907  21.237  40.466  0.00  0.00    +0.158 C 
BRANCH  77  79
ATOM     78  C   ASP A   3      30.140  23.070  42.078  0.00  0.00    +0.241 C 
ATOM     79  N   ASN A   4      29.882  21.787  41.823  0.00  0.00    -0.297 N 
ATOM     80  H   ASN A   4      29.655  21.154  42.616  0.00  0.00    +0.150 HD
ATOM     81  O   ASP A   3      30.518  23.858  41.219  0.00  0.00    -0.273 OA
BRANCH  78  82
ATOM     82  CA  ASP A   3      29.945  23.544  43.517  0.00  0.00    +0.160 C 
BRANCH  82  84
ATOM     83  C   PRO A   2      27.534  23.223  43.472  0.00  0.00    +0.241 C 
ATOM     84  N   ASP A   3      28.698  23.062  44.086  0.00  0.00    -0.297 N 
ATOM     85  H   ASP A   3      28.719  22.575  45.005  0.00  0.00    +0.150 HD
ATOM     86  O   PRO A   2      27.410  23.769  42.367  0.00  0.00    -0.273 OA
BRANCH  83  90
ATOM     87  C   LEU A   1      25.086  24.783  44.153  0.00  0.00    +0.241 C 
ATOM     88  O   LEU A   1      26.025  25.412  44.655  0.00  0.00    -0.273 OA
ATOM     89  N   PRO A   2      25.136  23.470  43.902  0.00  0.00    -0.272 N 
ATOM     90  CA  PRO A   2      26.328  22.681  44.214  0.00  0.00    +0.152 C 
ATOM     91  CB  PRO A   2      25.970  21.287  43.705  0.00  0.00    +0.031 C 
ATOM     92  CG  PRO A   2      24.481  21.261  43.655  0.00  0.00    +0.024 C 
ATOM     93  CD  PRO A   2      24.063  22.653  43.310  0.00  0.00    +0.094 C 
BRANCH  87  94
ATOM     94  CA  LEU A   1      23.787  25.485  43.786  0.00  0.00    +0.145 C 
BRANCH  94  95
ATOM     95  N   LEU A   1      23.552  26.697  44.565  0.00  0.00    -0.238 NA
ATOM     96  H   LEU A   1      24.306  27.400  44.698  0.00  0.00    +0.142 HD
ENDBRANCH  94  95
BRANCH  94  97
ATOM     97  CB  LEU A   1      23.691  25.757  42.273  0.00  0.00    +0.026 C 
BRANCH  97  98
ATOM     98  CG  LEU A   1      24.586  26.776  41.583  0.00  0.00    +0.002 C 
ATOM     99  CD2 LEU A   1      25.981  26.235  41.497  0.00  0.00    +0.000 C 
ATOM    100  CD1 LEU A   1      24.063  27.052  40.180  0.00  0.00    +0.000 C 
ENDBRANCH  97  98
ENDBRANCH  94  97
ENDBRANCH  87  94
ENDBRANCH  83  90
ENDBRANCH  82  84
BRANCH  82 101
ATOM    101  CB  ASP A   3      31.128  23.142  44.404  0.00  0.00    +0.143 C 
BRANCH 101 102
ATOM    102  CG  ASP A   3      31.046  23.753  45.804  0.00  0.00    +0.367 C 
ATOM    103  OD2 ASP A   3      31.445  23.066  46.773  0.00  0.00    -0.246 OA
ATOM    104  OD1 ASP A   3      30.591  24.920  45.937  0.00  0.00    -0.246 OA
ENDBRANCH 101 102
ENDBRANCH  82 101
ENDBRANCH  78  82
ENDBRANCH  77  79
BRANCH  77 105
ATOM    105  CB  ASN A   4      30.834  20.016  40.378  0.00  0.00    +0.114 C 
BRANCH 105 106
ATOM    106  CG  ASN A   4      32.303  20.393  40.234  0.00  0.00    +0.222 C 
ATOM    107  ND2 ASN A   4      33.058  20.257  41.319  0.00  0.00    -0.329 N 
ATOM    108 HD21 ASN A   4      32.635  19.922  42.208  0.00  0.00    +0.145 HD
ATOM    109 HD22 ASN A   4      34.072  20.485  41.279  0.00  0.00    +0.145 HD
ATOM    110  OD1 ASN A   4      32.756  20.786  39.156  0.00  0.00    -0.275 OA
ENDBRANCH 105 106
ENDBRANCH  77 105
ENDBRANCH  73  77
ENDBRANCH  72  75
BRANCH  72 111
ATOM    111  CB  ASN A   5      25.748  22.580  39.197  0.00  0.00    +0.114 C 
BRANCH 111 112
ATOM    112  CG  ASN A   5      26.118  23.769  38.343  0.00  0.00    +0.222 C 
ATOM    113  ND2 ASN A   5      26.977  24.631  38.870  0.00  0.00    -0.329 N 
ATOM    114 HD21 ASN A   5      27.347  24.476  39.829  0.00  0.00    +0.145 HD
ATOM    115 HD22 ASN A   5      27.281  25.462  38.324  0.00  0.00    +0.145 HD
ATOM    116  OD1 ASN A   5      25.649  23.905  37.212  0.00  0.00    -0.275 OA
ENDBRANCH 111 112
ENDBRANCH  72 111
ENDBRANCH  68  72
ENDBRANCH  67  70
ENDBRANCH  63  67
ENDBRANCH  62  65
BRANCH  62 117
ATOM    117  CB  SER A   7      23.101  20.769  32.166  0.00  0.00    +0.166 C 
BRANCH 117 118
ATOM    118  OG  SER A   7      22.096  20.047  32.851  0.00  0.00    -0.380 OA
ATOM    119  H   SER A   7      22.516  19.461  33.529  0.00  0.00    +0.211 HD
ENDBRANCH 117 118
ENDBRANCH  62 117
ENDBRANCH   1  62
TORSDOF 49
REMARK  Name = ../refined-set-2016/4g0z/4g0z_pocket.pdb
REMARK  128 active torsions:
REMARK  status: ('A' for Active; 'I' for Inactive)
REMARK    1  A    between atoms: _1  and  _3
REMARK    2  A    between atoms: _3  and  _4
REMARK    3  A    between atoms: _3  and  _6
REMARK    4  A    between atoms: _6  and  _7
REMARK    5  A    between atoms: _10  and  _12
REMARK    6  A    between atoms: _12  and  _13
REMARK    7  A    between atoms: _12  and  _15
REMARK    8  A    between atoms: _15  and  _16
REMARK    9  A    between atoms: _19  and  _21
REMARK   10  A    between atoms: _21  and  _22
REMARK   11  A    between atoms: _21  and  _24
REMARK   12  A    between atoms: _27  and  _29
REMARK   13  A    between atoms: _29  and  _30
REMARK   14  A    between atoms: _29  and  _32
REMARK   15  A    between atoms: _32  and  _33
REMARK   16  A    between atoms: _37  and  _38
REMARK   17  A    between atoms: _43  and  _45
REMARK   18  A    between atoms: _45  and  _46
REMARK   19  A    between atoms: _45  and  _48
REMARK   20  A    between atoms: _48  and  _49
REMARK   21  A    between atoms: _52  and  _54
REMARK   22  A    between atoms: _54  and  _55
REMARK   23  A    between atoms: _54  and  _57
REMARK   24  A    between atoms: _57  and  _58
REMARK   25  A    between atoms: _63  and  _65
REMARK   26  A    between atoms: _65  and  _66
REMARK   27  A    between atoms: _65  and  _68
REMARK   28  A    between atoms: _68  and  _69
REMARK   29  A    between atoms: _74  and  _76
REMARK   30  A    between atoms: _76  and  _77
REMARK   31  A    between atoms: _79  and  _81
REMARK   32  A    between atoms: _81  and  _82
REMARK   33  A    between atoms: _81  and  _84
REMARK   34  A    between atoms: _84  and  _85
REMARK   35  A    between atoms: _87  and  _89
REMARK   36  A    between atoms: _89  and  _90
REMARK   37  A    between atoms: _89  and  _92
REMARK   38  A    between atoms: _92  and  _93
REMARK   39  A    between atoms: _96  and  _98
REMARK   40  A    between atoms: _98  and  _99
REMARK   41  A    between atoms: _98  and  _101
REMARK   42  A    between atoms: _101  and  _102
REMARK   43  A    between atoms: _107  and  _108
REMARK   44  A    between atoms: _110  and  _112
REMARK   45  A    between atoms: _112  and  _113
REMARK   46  A    between atoms: _115  and  _117
REMARK   47  A    between atoms: _117  and  _118
REMARK   48  A    between atoms: _117  and  _120
REMARK   49  A    between atoms: _120  and  _121
REMARK   50  A    between atoms: _124  and  _126
REMARK   51  A    between atoms: _126  and  _127
REMARK   52  A    between atoms: _126  and  _129
REMARK   53  A    between atoms: _129  and  _130
REMARK   54  A    between atoms: _133  and  _135
REMARK   55  A    between atoms: _135  and  _136
REMARK   56  A    between atoms: _135  and  _138
REMARK   57  A    between atoms: _138  and  _139
REMARK   58  A    between atoms: _139  and  _140
REMARK   59  A    between atoms: _140  and  _141
REMARK   60  A    between atoms: _141  and  _142
REMARK   61  A    between atoms: _146  and  _148
REMARK   62  A    between atoms: _148  and  _149
REMARK   63  A    between atoms: _148  and  _151
REMARK   64  A    between atoms: _151  and  _152
REMARK   65  A    between atoms: _152  and  _153
REMARK   66  A    between atoms: _156  and  _158
REMARK   67  A    between atoms: _158  and  _159
REMARK   68  A    between atoms: _158  and  _161
REMARK   69  A    between atoms: _164  and  _166
REMARK   70  A    between atoms: _166  and  _167
REMARK   71  A    between atoms: _166  and  _169
REMARK   72  A    between atoms: _169  and  _170
REMARK   73  A    between atoms: _172  and  _174
REMARK   74  A    between atoms: _174  and  _175
REMARK   75  A    between atoms: _174  and  _177
REMARK   76  A    between atoms: _177  and  _178
REMARK   77  A    between atoms: _178  and  _179
REMARK   78  A    between atoms: _184  and  _186
REMARK   79  A    between atoms: _186  and  _187
REMARK   80  A    between atoms: _186  and  _189
REMARK   81  A    between atoms: _191  and  _193
REMARK   82  A    between atoms: _193  and  _194
REMARK   83  A    between atoms: _193  and  _196
REMARK   84  A    between atoms: _198  and  _200
REMARK   85  A    between atoms: _200  and  _201
REMARK   86  A    between atoms: _200  and  _203
REMARK   87  A    between atoms: _203  and  _204
REMARK   88  A    between atoms: _207  and  _209
REMARK   89  A    between atoms: _209  and  _210
REMARK   90  A    between atoms: _209  and  _212
REMARK   91  A    between atoms: _212  and  _213
REMARK   92  A    between atoms: _216  and  _218
REMARK   93  A    between atoms: _218  and  _219
REMARK   94  A    between atoms: _218  and  _221
REMARK   95  A    between atoms: _221  and  _222
REMARK   96  A    between atoms: _222  and  _223
REMARK   97  A    between atoms: _223  and  _224
REMARK   98  A    between atoms: _224  and  _225
REMARK   99  A    between atoms: _229  and  _231
REMARK  100  A    between atoms: _231  and  _232
REMARK  101  A    between atoms: _231  and  _234
REMARK  102  A    between atoms: _234  and  _235
REMARK  103  A    between atoms: _240  and  _242
REMARK  104  A    between atoms: _242  and  _243
REMARK  105  A    between atoms: _242  and  _245
REMARK  106  A    between atoms: _245  and  _246
REMARK  107  A    between atoms: _251  and  _252
REMARK  108  A    between atoms: _254  and  _256
REMARK  109  A    between atoms: _256  and  _257
REMARK  110  A    between atoms: _256  and  _259
REMARK  111  A    between atoms: _262  and  _264
REMARK  112  A    between atoms: _264  and  _265
REMARK  113  A    between atoms: _264  and  _267
REMARK  114  A    between atoms: _267  and  _268
REMARK  115  A    between atoms: _268  and  _269
REMARK  116  A    between atoms: _269  and  _270
REMARK  117  A    between atoms: _270  and  _271
REMARK  118  A    between atoms: _275  and  _277
REMARK  119  A    between atoms: _277  and  _278
REMARK  120  A    between atoms: _277  and  _280
REMARK  121  A    between atoms: _280  and  _281
REMARK  122  A    between atoms: _284  and  _286
REMARK  123  A    between atoms: _286  and  _287
REMARK  124  A    between atoms: _286  and  _289
REMARK  125  A    between atoms: _289  and  _290
REMARK  126  A    between atoms: _290  and  _291
REMARK  127  A    between atoms: _291  and  _292
REMARK  128  A    between atoms: _292  and  _293
REMARK                            x       y       z     vdW  Elec       q    Type
REMARK                         _______ _______ _______ _____ _____    ______ ____
ROOT
ATOM      1  CA  GLU A   1      15.904  34.663  31.092  0.00  0.00    +0.134 C 
ENDROOT
BRANCH   1   2
ATOM      2  N   GLU A   1      15.779  33.640  32.127  0.00  0.00    -0.239 NA
ATOM      3  H   GLU A   1      16.424  32.824  32.131  0.00  0.00    +0.142 HD
ENDBRANCH   1   2
BRANCH   1   4
ATOM      4  C   GLU A   1      14.751  34.623  30.085  0.00  0.00    +0.224 C 
ATOM      5  O   GLU A   1      14.182  35.659  29.758  0.00  0.00    -0.287 OA
ENDBRANCH   1   4
BRANCH   1   6
ATOM      6  CB  GLU A   1      17.255  34.562  30.377  0.00  0.00    +0.037 C 
BRANCH   6   7
ATOM      7  CG  GLU A   1      18.420  35.022  31.236  0.00  0.00    +0.116 C 
BRANCH   7   8
ATOM      8  CD  GLU A   1      19.772  34.567  30.714  0.00  0.00    +0.365 C 
ATOM      9  OE2 GLU A   1      20.753  34.649  31.483  0.00  0.00    -0.246 OA
ATOM     10  OE1 GLU A   1      19.850  34.123  29.547  0.00  0.00    -0.246 OA
ENDBRANCH   7   8
ENDBRANCH   6   7
ENDBRANCH   1   6
TORSDOF 5
REMARK  Name = ../refined-set-2016/4g0z/4g0z_pocket.pdb
REMARK  128 active torsions:
REMARK  status: ('A' for Active; 'I' for Inactive)
REMARK    1  A    between atoms: _1  and  _3
REMARK    2  A    between atoms: _3  and  _4
REMARK    3  A    between atoms: _3  and  _6
REMARK    4  A    between atoms: _6  and  _7
REMARK    5  A    between atoms: _10  and  _12
REMARK    6  A    between atoms: _12  and  _13
REMARK    7  A    between atoms: _12  and  _15
REMARK    8  A    between atoms: _15  and  _16
REMARK    9  A    between atoms: _19  and  _21
REMARK   10  A    between atoms: _21  and  _22
REMARK   11  A    between atoms: _21  and  _24
REMARK   12  A    between atoms: _27  and  _29
REMARK   13  A    between atoms: _29  and  _30
REMARK   14  A    between atoms: _29  and  _32
REMARK   15  A    between atoms: _32  and  _33
REMARK   16  A    between atoms: _37  and  _38
REMARK   17  A    between atoms: _43  and  _45
REMARK   18  A    between atoms: _45  and  _46
REMARK   19  A    between atoms: _45  and  _48
REMARK   20  A    between atoms: _48  and  _49
REMARK   21  A    between atoms: _52  and  _54
REMARK   22  A    between atoms: _54  and  _55
REMARK   23  A    between atoms: _54  and  _57
REMARK   24  A    between atoms: _57  and  _58
REMARK   25  A    between atoms: _63  and  _65
REMARK   26  A    between atoms: _65  and  _66
REMARK   27  A    between atoms: _65  and  _68
REMARK   28  A    between atoms: _68  and  _69
REMARK   29  A    between atoms: _74  and  _76
REMARK   30  A    between atoms: _76  and  _77
REMARK   31  A    between atoms: _79  and  _81
REMARK   32  A    between atoms: _81  and  _82
REMARK   33  A    between atoms: _81  and  _84
REMARK   34  A    between atoms: _84  and  _85
REMARK   35  A    between atoms: _87  and  _89
REMARK   36  A    between atoms: _89  and  _90
REMARK   37  A    between atoms: _89  and  _92
REMARK   38  A    between atoms: _92  and  _93
REMARK   39  A    between atoms: _96  and  _98
REMARK   40  A    between atoms: _98  and  _99
REMARK   41  A    between atoms: _98  and  _101
REMARK   42  A    between atoms: _101  and  _102
REMARK   43  A    between atoms: _107  and  _108
REMARK   44  A    between atoms: _110  and  _112
REMARK   45  A    between atoms: _112  and  _113
REMARK   46  A    between atoms: _115  and  _117
REMARK   47  A    between atoms: _117  and  _118
REMARK   48  A    between atoms: _117  and  _120
REMARK   49  A    between atoms: _120  and  _121
REMARK   50  A    between atoms: _124  and  _126
REMARK   51  A    between atoms: _126  and  _127
REMARK   52  A    between atoms: _126  and  _129
REMARK   53  A    between atoms: _129  and  _130
REMARK   54  A    between atoms: _133  and  _135
REMARK   55  A    between atoms: _135  and  _136
REMARK   56  A    between atoms: _135  and  _138
REMARK   57  A    between atoms: _138  and  _139
REMARK   58  A    between atoms: _139  and  _140
REMARK   59  A    between atoms: _140  and  _141
REMARK   60  A    between atoms: _141  and  _142
REMARK   61  A    between atoms: _146  and  _148
REMARK   62  A    between atoms: _148  and  _149
REMARK   63  A    between atoms: _148  and  _151
REMARK   64  A    between atoms: _151  and  _152
REMARK   65  A    between atoms: _152  and  _153
REMARK   66  A    between atoms: _156  and  _158
REMARK   67  A    between atoms: _158  and  _159
REMARK   68  A    between atoms: _158  and  _161
REMARK   69  A    between atoms: _164  and  _166
REMARK   70  A    between atoms: _166  and  _167
REMARK   71  A    between atoms: _166  and  _169
REMARK   72  A    between atoms: _169  and  _170
REMARK   73  A    between atoms: _172  and  _174
REMARK   74  A    between atoms: _174  and  _175
REMARK   75  A    between atoms: _174  and  _177
REMARK   76  A    between atoms: _177  and  _178
REMARK   77  A    between atoms: _178  and  _179
REMARK   78  A    between atoms: _184  and  _186
REMARK   79  A    between atoms: _186  and  _187
REMARK   80  A    between atoms: _186  and  _189
REMARK   81  A    between atoms: _191  and  _193
REMARK   82  A    between atoms: _193  and  _194
REMARK   83  A    between atoms: _193  and  _196
REMARK   84  A    between atoms: _198  and  _200
REMARK   85  A    between atoms: _200  and  _201
REMARK   86  A    between atoms: _200  and  _203
REMARK   87  A    between atoms: _203  and  _204
REMARK   88  A    between atoms: _207  and  _209
REMARK   89  A    between atoms: _209  and  _210
REMARK   90  A    between atoms: _209  and  _212
REMARK   91  A    between atoms: _212  and  _213
REMARK   92  A    between atoms: _216  and  _218
REMARK   93  A    between atoms: _218  and  _219
REMARK   94  A    between atoms: _218  and  _221
REMARK   95  A    between atoms: _221  and  _222
REMARK   96  A    between atoms: _222  and  _223
REMARK   97  A    between atoms: _223  and  _224
REMARK   98  A    between atoms: _224  and  _225
REMARK   99  A    between atoms: _229  and  _231
REMARK  100  A    between atoms: _231  and  _232
REMARK  101  A    between atoms: _231  and  _234
REMARK  102  A    between atoms: _234  and  _235
REMARK  103  A    between atoms: _240  and  _242
REMARK  104  A    between atoms: _242  and  _243
REMARK  105  A    between atoms: _242  and  _245
REMARK  106  A    between atoms: _245  and  _246
REMARK  107  A    between atoms: _251  and  _252
REMARK  108  A    between atoms: _254  and  _256
REMARK  109  A    between atoms: _256  and  _257
REMARK  110  A    between atoms: _256  and  _259
REMARK  111  A    between atoms: _262  and  _264
REMARK  112  A    between atoms: _264  and  _265
REMARK  113  A    between atoms: _264  and  _267
REMARK  114  A    between atoms: _267  and  _268
REMARK  115  A    between atoms: _268  and  _269
REMARK  116  A    between atoms: _269  and  _270
REMARK  117  A    between atoms: _270  and  _271
REMARK  118  A    between atoms: _275  and  _277
REMARK  119  A    between atoms: _277  and  _278
REMARK  120  A    between atoms: _277  and  _280
REMARK  121  A    between atoms: _280  and  _281
REMARK  122  A    between atoms: _284  and  _286
REMARK  123  A    between atoms: _286  and  _287
REMARK  124  A    between atoms: _286  and  _289
REMARK  125  A    between atoms: _289  and  _290
REMARK  126  A    between atoms: _290  and  _291
REMARK  127  A    between atoms: _291  and  _292
REMARK  128  A    between atoms: _292  and  _293
REMARK                            x       y       z     vdW  Elec       q    Type
REMARK                         _______ _______ _______ _____ _____    ______ ____
ROOT
ATOM      1  C   CYS A   5      26.136  29.860  45.018  0.00  0.00    +0.242 C 
ATOM      2  O   CYS A   5      25.293  29.016  45.325  0.00  0.00    -0.273 OA
ATOM      3  N   LEU A   6      27.441  29.590  44.927  0.00  0.00    -0.297 N 
ATOM      4  H   LEU A   6      28.101  30.356  44.683  0.00  0.00    +0.150 HD
ENDROOT
BRANCH   3   5
ATOM      5  CA  LEU A   6      27.966  28.246  45.161  0.00  0.00    +0.149 C 
BRANCH   5   6
ATOM      6  C   LEU A   6      27.947  27.868  46.641  0.00  0.00    +0.241 C 
ATOM      7  O   LEU A   6      28.170  28.698  47.511  0.00  0.00    -0.273 OA
ATOM      8  N   THR A   7      27.692  26.592  46.904  0.00  0.00    -0.295 N 
ATOM      9  H   THR A   7      27.500  25.948  46.110  0.00  0.00    +0.150 HD
BRANCH   8  10
ATOM     10  CA  THR A   7      27.670  26.054  48.263  0.00  0.00    +0.176 C 
BRANCH  10  11
ATOM     11  C   THR A   7      28.883  26.474  49.095  0.00  0.00    +0.243 C 
ATOM     12  O   THR A   7      28.749  26.803  50.267  0.00  0.00    -0.273 OA
ATOM     13  N   LYS A   8      30.066  26.463  48.491  0.00  0.00    -0.297 N 
ATOM     14  H   LYS A   8      30.128  26.220  47.482  0.00  0.00    +0.150 HD
BRANCH  13  15
ATOM     15  CA  LYS A   8      31.280  26.790  49.235  0.00  0.00    +0.149 C 
BRANCH  15  16
ATOM     16  C   LYS A   8      31.148  28.168  49.877  0.00  0.00    +0.241 C 
ATOM     17  O   LYS A   8      31.559  28.372  51.021  0.00  0.00    -0.273 OA
ATOM     18  N   HIS A   9      30.531  29.105  49.155  0.00  0.00    -0.298 N 
ATOM     19  H   HIS A   9      30.131  28.852  48.229  0.00  0.00    +0.150 HD
BRANCH  18  20
ATOM     20  CA  HIS A   9      30.405  30.476  49.635  0.00  0.00    +0.143 C 
BRANCH  20  21
ATOM     21  C   HIS A   9      29.299  30.619  50.668  0.00  0.00    +0.227 C 
ATOM     22  O   HIS A   9      29.348  31.495  51.527  0.00  0.00    -0.286 OA
ENDBRANCH  20  21
BRANCH  20  23
ATOM     23  CB  HIS A   9      30.156  31.437  48.465  0.00  0.00    +0.075 C 
BRANCH  23  24
ATOM     24  CG  HIS A   9      31.249  31.437  47.439  0.00  0.00    +0.082 A 
ATOM     25  CD2 HIS A   9      32.578  31.664  47.558  0.00  0.00    +0.115 A 
ATOM     26  NE2 HIS A   9      33.121  31.530  46.300  0.00  0.00    -0.221 NA
ATOM     27  CE1 HIS A   9      32.162  31.235  45.446  0.00  0.00    +0.199 A 
ATOM     28  ND1 HIS A   9      31.018  31.169  46.110  0.00  0.00    -0.227 NA
ENDBRANCH  23  24
ENDBRANCH  20  23
ENDBRANCH  18  20
ENDBRANCH  15  16
BRANCH  15  29
ATOM     29  CB  LYS A   8      32.524  26.712  48.332  0.00  0.00    +0.029 C 
BRANCH  29  30
ATOM     30  CG  LYS A   8      32.505  27.696  47.162  0.00  0.00    +0.000 C 
BRANCH  30  31
ATOM     31  CD  LYS A   8      33.820  27.711  46.395  0.00  0.00    -0.024 C 
BRANCH  31  32
ATOM     32  CE  LYS A   8      34.003  26.438  45.588  0.00  0.00    -0.086 C 
BRANCH  32  33
ATOM     33  NZ  LYS A   8      35.174  26.545  44.661  0.00  0.00    +0.380 N 
ATOM     34  HZ1 LYS A   8      36.038  26.714  45.214  0.00  0.00    -0.089 HD
ATOM     35  HZ2 LYS A   8      35.272  25.660  44.124  0.00  0.00    -0.089 HD
ATOM     36  HZ3 LYS A   8      35.022  27.336  44.003  0.00  0.00    -0.089 HD
ENDBRANCH  32  33
ENDBRANCH  31  32
ENDBRANCH  30  31
ENDBRANCH  29  30
ENDBRANCH  15  29
ENDBRANCH  13  15
ENDBRANCH  10  11
BRANCH  10  37
ATOM     37  CB  THR A   7      27.585  24.512  48.238  0.00  0.00    +0.137 C 
ATOM     38  CG2 THR A   7      27.586  23.946  49.647  0.00  0.00    +0.034 C 
BRANCH  37  39
ATOM     39  OG1 THR A   7      26.373  24.117  47.585  0.00  0.00    -0.382 OA
ATOM     40  HG1 THR A   7      26.370  24.465  46.658  0.00  0.00    +0.210 HD
ENDBRANCH  37  39
ENDBRANCH  10  37
ENDBRANCH   8  10
ENDBRANCH   5   6
BRANCH   5  41
ATOM     41  CB  LEU A   6      29.400  28.117  44.633  0.00  0.00    +0.029 C 
BRANCH  41  42
ATOM     42  CG  LEU A   6      29.587  28.171  43.119  0.00  0.00    +0.002 C 
ATOM     43  CD2 LEU A   6      31.070  28.178  42.782  0.00  0.00    +0.000 C 
ATOM     44  CD1 LEU A   6      28.901  26.995  42.475  0.00  0.00    +0.000 C 
ENDBRANCH  41  42
ENDBRANCH   5  41
ENDBRANCH   3   5
BRANCH   1  45
ATOM     45  CA  CYS A   5      25.703  31.288  44.721  0.00  0.00    +0.160 C 
BRANCH  45  47
ATOM     46  C   CYS A   4      24.739  32.158  42.651  0.00  0.00    +0.242 C 
ATOM     47  N   CYS A   5      24.710  31.280  43.651  0.00  0.00    -0.296 N 
ATOM     48  H   CYS A   5      23.955  30.565  43.671  0.00  0.00    +0.150 HD
ATOM     49  O   CYS A   4      25.631  32.985  42.512  0.00  0.00    -0.273 OA
BRANCH  46  50
ATOM     50  CA  CYS A   4      23.610  32.058  41.640  0.00  0.00    +0.160 C 
BRANCH  50  53
ATOM     51  C   GLN A   3      22.188  34.010  41.797  0.00  0.00    +0.241 C 
ATOM     52  O   GLN A   3      21.586  33.544  42.767  0.00  0.00    -0.273 OA
ATOM     53  N   CYS A   4      23.184  33.377  41.186  0.00  0.00    -0.296 N 
ATOM     54  H   CYS A   4      23.663  33.825  40.379  0.00  0.00    +0.150 HD
BRANCH  51  55
ATOM     55  CA  GLN A   3      21.811  35.363  41.253  0.00  0.00    +0.149 C 
BRANCH  55  57
ATOM     56  C   SER A   2      20.085  35.723  39.553  0.00  0.00    +0.243 C 
ATOM     57  N   GLN A   3      20.434  35.295  40.767  0.00  0.00    -0.297 N 
ATOM     58  H   GLN A   3      19.701  34.899  41.390  0.00  0.00    +0.150 HD
ATOM     59  O   SER A   2      20.876  36.268  38.782  0.00  0.00    -0.273 OA
BRANCH  56  60
ATOM     60  CA  SER A   2      18.622  35.527  39.155  0.00  0.00    +0.178 C 
BRANCH  60  63
ATOM     61  C   VAL A   1      16.982  37.217  38.493  0.00  0.00    +0.238 C 
ATOM     62  O   VAL A   1      16.231  36.897  39.411  0.00  0.00    -0.274 OA
ATOM     63  N   SER A   2      18.155  36.619  38.286  0.00  0.00    -0.295 N 
ATOM     64  H   SER A   2      18.753  36.931  37.494  0.00  0.00    +0.150 HD
BRANCH  61  65
ATOM     65  CA  VAL A   1      16.581  38.318  37.504  0.00  0.00    +0.145 C 
BRANCH  65  66
ATOM     66  CB  VAL A   1      16.851  39.716  38.108  0.00  0.00    +0.025 C 
ATOM     67  CG2 VAL A   1      18.234  39.777  38.755  0.00  0.00    +0.002 C 
ATOM     68  CG1 VAL A   1      16.700  40.804  37.033  0.00  0.00    +0.002 C 
ENDBRANCH  65  66
BRANCH  65  69
ATOM     69  N   VAL A   1      15.175  38.173  37.152  0.00  0.00    -0.238 NA
ATOM     70  H   VAL A   1      14.499  38.905  37.451  0.00  0.00    +0.142 HD
ENDBRANCH  65  69
ENDBRANCH  61  65
ENDBRANCH  60  63
BRANCH  60  71
ATOM     71  CB  SER A   2      18.423  34.159  38.478  0.00  0.00    +0.166 C 
BRANCH  71  72
ATOM     72  OG  SER A   2      19.178  34.061  37.273  0.00  0.00    -0.380 OA
ATOM     73  H   SER A   2      18.888  34.769  36.645  0.00  0.00    +0.211 HD
ENDBRANCH  71  72
ENDBRANCH  60  71
ENDBRANCH  56  60
ENDBRANCH  55  57
BRANCH  55  74
ATOM     74  CB  GLN A   3      21.942  36.385  42.380  0.00  0.00    +0.039 C 
BRANCH  74  75
ATOM     75  CG  GLN A   3      23.371  36.527  42.928  0.00  0.00    +0.087 C 
BRANCH  75  76
ATOM     76  CD  GLN A   3      24.376  36.856  41.840  0.00  0.00    +0.219 C 
ATOM     77  NE2 GLN A   3      25.376  36.003  41.673  0.00  0.00    -0.329 N 
ATOM     78 HE21 GLN A   3      25.440  35.154  42.270  0.00  0.00    +0.145 HD
ATOM     79 HE22 GLN A   3      26.097  36.183  40.945  0.00  0.00    +0.145 HD
ATOM     80  OE1 GLN A   3      24.257  37.869  41.163  0.00  0.00    -0.275 OA
ENDBRANCH  75  76
ENDBRANCH  74  75
ENDBRANCH  55  74
ENDBRANCH  51  55
ENDBRANCH  50  53
BRANCH  50  81
ATOM     81  CB  CYS A   4      24.061  31.206  40.459  0.00  0.00    +0.098 C 
ATOM     82  SG  CYS A   4      22.709  30.703  39.407  0.00  0.00    -0.080 S 
ENDBRANCH  50  81
ENDBRANCH  46  50
ENDBRANCH  45  47
BRANCH  45  83
ATOM     83  CB  CYS A   5      25.099  31.910  45.981  0.00  0.00    +0.098 C 
ATOM     84  SG  CYS A   5      24.430  33.595  45.766  0.00  0.00    -0.080 S 
ENDBRANCH  45  83
ENDBRANCH   1  45
TORSDOF 37
REMARK  Name = ../refined-set-2016/4g0z/4g0z_pocket.pdb
REMARK  128 active torsions:
REMARK  status: ('A' for Active; 'I' for Inactive)
REMARK    1  A    between atoms: _1  and  _3
REMARK    2  A    between atoms: _3  and  _4
REMARK    3  A    between atoms: _3  and  _6
REMARK    4  A    between atoms: _6  and  _7
REMARK    5  A    between atoms: _10  and  _12
REMARK    6  A    between atoms: _12  and  _13
REMARK    7  A    between atoms: _12  and  _15
REMARK    8  A    between atoms: _15  and  _16
REMARK    9  A    between atoms: _19  and  _21
REMARK   10  A    between atoms: _21  and  _22
REMARK   11  A    between atoms: _21  and  _24
REMARK   12  A    between atoms: _27  and  _29
REMARK   13  A    between atoms: _29  and  _30
REMARK   14  A    between atoms: _29  and  _32
REMARK   15  A    between atoms: _32  and  _33
REMARK   16  A    between atoms: _37  and  _38
REMARK   17  A    between atoms: _43  and  _45
REMARK   18  A    between atoms: _45  and  _46
REMARK   19  A    between atoms: _45  and  _48
REMARK   20  A    between atoms: _48  and  _49
REMARK   21  A    between atoms: _52  and  _54
REMARK   22  A    between atoms: _54  and  _55
REMARK   23  A    between atoms: _54  and  _57
REMARK   24  A    between atoms: _57  and  _58
REMARK   25  A    between atoms: _63  and  _65
REMARK   26  A    between atoms: _65  and  _66
REMARK   27  A    between atoms: _65  and  _68
REMARK   28  A    between atoms: _68  and  _69
REMARK   29  A    between atoms: _74  and  _76
REMARK   30  A    between atoms: _76  and  _77
REMARK   31  A    between atoms: _79  and  _81
REMARK   32  A    between atoms: _81  and  _82
REMARK   33  A    between atoms: _81  and  _84
REMARK   34  A    between atoms: _84  and  _85
REMARK   35  A    between atoms: _87  and  _89
REMARK   36  A    between atoms: _89  and  _90
REMARK   37  A    between atoms: _89  and  _92
REMARK   38  A    between atoms: _92  and  _93
REMARK   39  A    between atoms: _96  and  _98
REMARK   40  A    between atoms: _98  and  _99
REMARK   41  A    between atoms: _98  and  _101
REMARK   42  A    between atoms: _101  and  _102
REMARK   43  A    between atoms: _107  and  _108
REMARK   44  A    between atoms: _110  and  _112
REMARK   45  A    between atoms: _112  and  _113
REMARK   46  A    between atoms: _115  and  _117
REMARK   47  A    between atoms: _117  and  _118
REMARK   48  A    between atoms: _117  and  _120
REMARK   49  A    between atoms: _120  and  _121
REMARK   50  A    between atoms: _124  and  _126
REMARK   51  A    between atoms: _126  and  _127
REMARK   52  A    between atoms: _126  and  _129
REMARK   53  A    between atoms: _129  and  _130
REMARK   54  A    between atoms: _133  and  _135
REMARK   55  A    between atoms: _135  and  _136
REMARK   56  A    between atoms: _135  and  _138
REMARK   57  A    between atoms: _138  and  _139
REMARK   58  A    between atoms: _139  and  _140
REMARK   59  A    between atoms: _140  and  _141
REMARK   60  A    between atoms: _141  and  _142
REMARK   61  A    between atoms: _146  and  _148
REMARK   62  A    between atoms: _148  and  _149
REMARK   63  A    between atoms: _148  and  _151
REMARK   64  A    between atoms: _151  and  _152
REMARK   65  A    between atoms: _152  and  _153
REMARK   66  A    between atoms: _156  and  _158
REMARK   67  A    between atoms: _158  and  _159
REMARK   68  A    between atoms: _158  and  _161
REMARK   69  A    between atoms: _164  and  _166
REMARK   70  A    between atoms: _166  and  _167
REMARK   71  A    between atoms: _166  and  _169
REMARK   72  A    between atoms: _169  and  _170
REMARK   73  A    between atoms: _172  and  _174
REMARK   74  A    between atoms: _174  and  _175
REMARK   75  A    between atoms: _174  and  _177
REMARK   76  A    between atoms: _177  and  _178
REMARK   77  A    between atoms: _178  and  _179
REMARK   78  A    between atoms: _184  and  _186
REMARK   79  A    between atoms: _186  and  _187
REMARK   80  A    between atoms: _186  and  _189
REMARK   81  A    between atoms: _191  and  _193
REMARK   82  A    between atoms: _193  and  _194
REMARK   83  A    between atoms: _193  and  _196
REMARK   84  A    between atoms: _198  and  _200
REMARK   85  A    between atoms: _200  and  _201
REMARK   86  A    between atoms: _200  and  _203
REMARK   87  A    between atoms: _203  and  _204
REMARK   88  A    between atoms: _207  and  _209
REMARK   89  A    between atoms: _209  and  _210
REMARK   90  A    between atoms: _209  and  _212
REMARK   91  A    between atoms: _212  and  _213
REMARK   92  A    between atoms: _216  and  _218
REMARK   93  A    between atoms: _218  and  _219
REMARK   94  A    between atoms: _218  and  _221
REMARK   95  A    between atoms: _221  and  _222
REMARK   96  A    between atoms: _222  and  _223
REMARK   97  A    between atoms: _223  and  _224
REMARK   98  A    between atoms: _224  and  _225
REMARK   99  A    between atoms: _229  and  _231
REMARK  100  A    between atoms: _231  and  _232
REMARK  101  A    between atoms: _231  and  _234
REMARK  102  A    between atoms: _234  and  _235
REMARK  103  A    between atoms: _240  and  _242
REMARK  104  A    between atoms: _242  and  _243
REMARK  105  A    between atoms: _242  and  _245
REMARK  106  A    between atoms: _245  and  _246
REMARK  107  A    between atoms: _251  and  _252
REMARK  108  A    between atoms: _254  and  _256
REMARK  109  A    between atoms: _256  and  _257
REMARK  110  A    between atoms: _256  and  _259
REMARK  111  A    between atoms: _262  and  _264
REMARK  112  A    between atoms: _264  and  _265
REMARK  113  A    between atoms: _264  and  _267
REMARK  114  A    between atoms: _267  and  _268
REMARK  115  A    between atoms: _268  and  _269
REMARK  116  A    between atoms: _269  and  _270
REMARK  117  A    between atoms: _270  and  _271
REMARK  118  A    between atoms: _275  and  _277
REMARK  119  A    between atoms: _277  and  _278
REMARK  120  A    between atoms: _277  and  _280
REMARK  121  A    between atoms: _280  and  _281
REMARK  122  A    between atoms: _284  and  _286
REMARK  123  A    between atoms: _286  and  _287
REMARK  124  A    between atoms: _286  and  _289
REMARK  125  A    between atoms: _289  and  _290
REMARK  126  A    between atoms: _290  and  _291
REMARK  127  A    between atoms: _291  and  _292
REMARK  128  A    between atoms: _292  and  _293
REMARK                            x       y       z     vdW  Elec       q    Type
REMARK                         _______ _______ _______ _____ _____    ______ ____
ROOT
ATOM      1  CG  TYR A   1      30.804  35.523  48.549  0.00  0.00    -0.020 A 
ATOM      2  CD2 TYR A   1      29.510  35.306  49.016  0.00  0.00    -0.001 A 
ATOM      3  CE2 TYR A   1      28.567  34.662  48.233  0.00  0.00    +0.036 A 
ATOM      4  CZ  TYR A   1      28.913  34.237  46.966  0.00  0.00    +0.134 A 
ATOM      5  CE1 TYR A   1      30.181  34.448  46.475  0.00  0.00    +0.036 A 
ATOM      6  CD1 TYR A   1      31.121  35.092  47.263  0.00  0.00    -0.001 A 
ENDROOT
BRANCH   4   7
ATOM      7  OH  TYR A   1      27.979  33.595  46.187  0.00  0.00    -0.506 OA
ATOM      8  HH  TYR A   1      28.384  33.358  45.315  0.00  0.00    +0.292 HD
ENDBRANCH   4   7
BRANCH   1   9
ATOM      9  CB  TYR A   1      31.831  36.242  49.405  0.00  0.00    +0.051 C 
BRANCH   9  10
ATOM     10  CA  TYR A   1      32.036  37.698  48.992  0.00  0.00    +0.137 C 
BRANCH  10  11
ATOM     11  N   TYR A   1      32.882  38.398  49.950  0.00  0.00    -0.239 NA
ATOM     12  H   TYR A   1      33.247  37.890  50.781  0.00  0.00    +0.142 HD
ENDBRANCH  10  11
BRANCH  10  13
ATOM     13  C   TYR A   1      30.687  38.391  48.890  0.00  0.00    +0.224 C 
ATOM     14  O   TYR A   1      30.206  38.687  47.798  0.00  0.00    -0.287 OA
ENDBRANCH  10  13
ENDBRANCH   9  10
ENDBRANCH   1   9
TORSDOF 5
REMARK  Name = ../refined-set-2016/4g0z/4g0z_pocket.pdb
REMARK  128 active torsions:
REMARK  status: ('A' for Active; 'I' for Inactive)
REMARK    1  A    between atoms: _1  and  _3
REMARK    2  A    between atoms: _3  and  _4
REMARK    3  A    between atoms: _3  and  _6
REMARK    4  A    between atoms: _6  and  _7
REMARK    5  A    between atoms: _10  and  _12
REMARK    6  A    between atoms: _12  and  _13
REMARK    7  A    between atoms: _12  and  _15
REMARK    8  A    between atoms: _15  and  _16
REMARK    9  A    between atoms: _19  and  _21
REMARK   10  A    between atoms: _21  and  _22
REMARK   11  A    between atoms: _21  and  _24
REMARK   12  A    between atoms: _27  and  _29
REMARK   13  A    between atoms: _29  and  _30
REMARK   14  A    between atoms: _29  and  _32
REMARK   15  A    between atoms: _32  and  _33
REMARK   16  A    between atoms: _37  and  _38
REMARK   17  A    between atoms: _43  and  _45
REMARK   18  A    between atoms: _45  and  _46
REMARK   19  A    between atoms: _45  and  _48
REMARK   20  A    between atoms: _48  and  _49
REMARK   21  A    between atoms: _52  and  _54
REMARK   22  A    between atoms: _54  and  _55
REMARK   23  A    between atoms: _54  and  _57
REMARK   24  A    between atoms: _57  and  _58
REMARK   25  A    between atoms: _63  and  _65
REMARK   26  A    between atoms: _65  and  _66
REMARK   27  A    between atoms: _65  and  _68
REMARK   28  A    between atoms: _68  and  _69
REMARK   29  A    between atoms: _74  and  _76
REMARK   30  A    between atoms: _76  and  _77
REMARK   31  A    between atoms: _79  and  _81
REMARK   32  A    between atoms: _81  and  _82
REMARK   33  A    between atoms: _81  and  _84
REMARK   34  A    between atoms: _84  and  _85
REMARK   35  A    between atoms: _87  and  _89
REMARK   36  A    between atoms: _89  and  _90
REMARK   37  A    between atoms: _89  and  _92
REMARK   38  A    between atoms: _92  and  _93
REMARK   39  A    between atoms: _96  and  _98
REMARK   40  A    between atoms: _98  and  _99
REMARK   41  A    between atoms: _98  and  _101
REMARK   42  A    between atoms: _101  and  _102
REMARK   43  A    between atoms: _107  and  _108
REMARK   44  A    between atoms: _110  and  _112
REMARK   45  A    between atoms: _112  and  _113
REMARK   46  A    between atoms: _115  and  _117
REMARK   47  A    between atoms: _117  and  _118
REMARK   48  A    between atoms: _117  and  _120
REMARK   49  A    between atoms: _120  and  _121
REMARK   50  A    between atoms: _124  and  _126
REMARK   51  A    between atoms: _126  and  _127
REMARK   52  A    between atoms: _126  and  _129
REMARK   53  A    between atoms: _129  and  _130
REMARK   54  A    between atoms: _133  and  _135
REMARK   55  A    between atoms: _135  and  _136
REMARK   56  A    between atoms: _135  and  _138
REMARK   57  A    between atoms: _138  and  _139
REMARK   58  A    between atoms: _139  and  _140
REMARK   59  A    between atoms: _140  and  _141
REMARK   60  A    between atoms: _141  and  _142
REMARK   61  A    between atoms: _146  and  _148
REMARK   62  A    between atoms: _148  and  _149
REMARK   63  A    between atoms: _148  and  _151
REMARK   64  A    between atoms: _151  and  _152
REMARK   65  A    between atoms: _152  and  _153
REMARK   66  A    between atoms: _156  and  _158
REMARK   67  A    between atoms: _158  and  _159
REMARK   68  A    between atoms: _158  and  _161
REMARK   69  A    between atoms: _164  and  _166
REMARK   70  A    between atoms: _166  and  _167
REMARK   71  A    between atoms: _166  and  _169
REMARK   72  A    between atoms: _169  and  _170
REMARK   73  A    between atoms: _172  and  _174
REMARK   74  A    between atoms: _174  and  _175
REMARK   75  A    between atoms: _174  and  _177
REMARK   76  A    between atoms: _177  and  _178
REMARK   77  A    between atoms: _178  and  _179
REMARK   78  A    between atoms: _184  and  _186
REMARK   79  A    between atoms: _186  and  _187
REMARK   80  A    between atoms: _186  and  _189
REMARK   81  A    between atoms: _191  and  _193
REMARK   82  A    between atoms: _193  and  _194
REMARK   83  A    between atoms: _193  and  _196
REMARK   84  A    between atoms: _198  and  _200
REMARK   85  A    between atoms: _200  and  _201
REMARK   86  A    between atoms: _200  and  _203
REMARK   87  A    between atoms: _203  and  _204
REMARK   88  A    between atoms: _207  and  _209
REMARK   89  A    between atoms: _209  and  _210
REMARK   90  A    between atoms: _209  and  _212
REMARK   91  A    between atoms: _212  and  _213
REMARK   92  A    between atoms: _216  and  _218
REMARK   93  A    between atoms: _218  and  _219
REMARK   94  A    between atoms: _218  and  _221
REMARK   95  A    between atoms: _221  and  _222
REMARK   96  A    between atoms: _222  and  _223
REMARK   97  A    between atoms: _223  and  _224
REMARK   98  A    between atoms: _224  and  _225
REMARK   99  A    between atoms: _229  and  _231
REMARK  100  A    between atoms: _231  and  _232
REMARK  101  A    between atoms: _231  and  _234
REMARK  102  A    between atoms: _234  and  _235
REMARK  103  A    between atoms: _240  and  _242
REMARK  104  A    between atoms: _242  and  _243
REMARK  105  A    between atoms: _242  and  _245
REMARK  106  A    between atoms: _245  and  _246
REMARK  107  A    between atoms: _251  and  _252
REMARK  108  A    between atoms: _254  and  _256
REMARK  109  A    between atoms: _256  and  _257
REMARK  110  A    between atoms: _256  and  _259
REMARK  111  A    between atoms: _262  and  _264
REMARK  112  A    between atoms: _264  and  _265
REMARK  113  A    between atoms: _264  and  _267
REMARK  114  A    between atoms: _267  and  _268
REMARK  115  A    between atoms: _268  and  _269
REMARK  116  A    between atoms: _269  and  _270
REMARK  117  A    between atoms: _270  and  _271
REMARK  118  A    between atoms: _275  and  _277
REMARK  119  A    between atoms: _277  and  _278
REMARK  120  A    between atoms: _277  and  _280
REMARK  121  A    between atoms: _280  and  _281
REMARK  122  A    between atoms: _284  and  _286
REMARK  123  A    between atoms: _286  and  _287
REMARK  124  A    between atoms: _286  and  _289
REMARK  125  A    between atoms: _289  and  _290
REMARK  126  A    between atoms: _290  and  _291
REMARK  127  A    between atoms: _291  and  _292
REMARK  128  A    between atoms: _292  and  _293
REMARK                            x       y       z     vdW  Elec       q    Type
REMARK                         _______ _______ _______ _____ _____    ______ ____
ROOT
ATOM      1  CA  VAL A   1      27.459  39.555  45.116  0.00  0.00    +0.133 C 
ENDROOT
BRANCH   1   2
ATOM      2  CB  VAL A   1      26.943  38.325  45.877  0.00  0.00    +0.023 C 
ATOM      3  CG2 VAL A   1      27.944  37.183  45.741  0.00  0.00    +0.002 C 
ATOM      4  CG1 VAL A   1      25.581  37.910  45.331  0.00  0.00    +0.002 C 
ENDBRANCH   1   2
BRANCH   1   5
ATOM      5  N   VAL A   1      28.735  40.036  45.645  0.00  0.00    -0.239 NA
ATOM      6  H   VAL A   1      29.092  39.687  46.557  0.00  0.00    +0.142 HD
ENDBRANCH   1   5
BRANCH   1   7
ATOM      7  C   VAL A   1      26.409  40.670  45.120  0.00  0.00    +0.224 C 
ATOM      8  O   VAL A   1      25.603  40.781  44.193  0.00  0.00    -0.287 OA
ENDBRANCH   1   7
TORSDOF 3
REMARK  Name = ../refined-set-2016/4g0z/4g0z_pocket.pdb
REMARK  128 active torsions:
REMARK  status: ('A' for Active; 'I' for Inactive)
REMARK    1  A    between atoms: _1  and  _3
REMARK    2  A    between atoms: _3  and  _4
REMARK    3  A    between atoms: _3  and  _6
REMARK    4  A    between atoms: _6  and  _7
REMARK    5  A    between atoms: _10  and  _12
REMARK    6  A    between atoms: _12  and  _13
REMARK    7  A    between atoms: _12  and  _15
REMARK    8  A    between atoms: _15  and  _16
REMARK    9  A    between atoms: _19  and  _21
REMARK   10  A    between atoms: _21  and  _22
REMARK   11  A    between atoms: _21  and  _24
REMARK   12  A    between atoms: _27  and  _29
REMARK   13  A    between atoms: _29  and  _30
REMARK   14  A    between atoms: _29  and  _32
REMARK   15  A    between atoms: _32  and  _33
REMARK   16  A    between atoms: _37  and  _38
REMARK   17  A    between atoms: _43  and  _45
REMARK   18  A    between atoms: _45  and  _46
REMARK   19  A    between atoms: _45  and  _48
REMARK   20  A    between atoms: _48  and  _49
REMARK   21  A    between atoms: _52  and  _54
REMARK   22  A    between atoms: _54  and  _55
REMARK   23  A    between atoms: _54  and  _57
REMARK   24  A    between atoms: _57  and  _58
REMARK   25  A    between atoms: _63  and  _65
REMARK   26  A    between atoms: _65  and  _66
REMARK   27  A    between atoms: _65  and  _68
REMARK   28  A    between atoms: _68  and  _69
REMARK   29  A    between atoms: _74  and  _76
REMARK   30  A    between atoms: _76  and  _77
REMARK   31  A    between atoms: _79  and  _81
REMARK   32  A    between atoms: _81  and  _82
REMARK   33  A    between atoms: _81  and  _84
REMARK   34  A    between atoms: _84  and  _85
REMARK   35  A    between atoms: _87  and  _89
REMARK   36  A    between atoms: _89  and  _90
REMARK   37  A    between atoms: _89  and  _92
REMARK   38  A    between atoms: _92  and  _93
REMARK   39  A    between atoms: _96  and  _98
REMARK   40  A    between atoms: _98  and  _99
REMARK   41  A    between atoms: _98  and  _101
REMARK   42  A    between atoms: _101  and  _102
REMARK   43  A    between atoms: _107  and  _108
REMARK   44  A    between atoms: _110  and  _112
REMARK   45  A    between atoms: _112  and  _113
REMARK   46  A    between atoms: _115  and  _117
REMARK   47  A    between atoms: _117  and  _118
REMARK   48  A    between atoms: _117  and  _120
REMARK   49  A    between atoms: _120  and  _121
REMARK   50  A    between atoms: _124  and  _126
REMARK   51  A    between atoms: _126  and  _127
REMARK   52  A    between atoms: _126  and  _129
REMARK   53  A    between atoms: _129  and  _130
REMARK   54  A    between atoms: _133  and  _135
REMARK   55  A    between atoms: _135  and  _136
REMARK   56  A    between atoms: _135  and  _138
REMARK   57  A    between atoms: _138  and  _139
REMARK   58  A    between atoms: _139  and  _140
REMARK   59  A    between atoms: _140  and  _141
REMARK   60  A    between atoms: _141  and  _142
REMARK   61  A    between atoms: _146  and  _148
REMARK   62  A    between atoms: _148  and  _149
REMARK   63  A    between atoms: _148  and  _151
REMARK   64  A    between atoms: _151  and  _152
REMARK   65  A    between atoms: _152  and  _153
REMARK   66  A    between atoms: _156  and  _158
REMARK   67  A    between atoms: _158  and  _159
REMARK   68  A    between atoms: _158  and  _161
REMARK   69  A    between atoms: _164  and  _166
REMARK   70  A    between atoms: _166  and  _167
REMARK   71  A    between atoms: _166  and  _169
REMARK   72  A    between atoms: _169  and  _170
REMARK   73  A    between atoms: _172  and  _174
REMARK   74  A    between atoms: _174  and  _175
REMARK   75  A    between atoms: _174  and  _177
REMARK   76  A    between atoms: _177  and  _178
REMARK   77  A    between atoms: _178  and  _179
REMARK   78  A    between atoms: _184  and  _186
REMARK   79  A    between atoms: _186  and  _187
REMARK   80  A    between atoms: _186  and  _189
REMARK   81  A    between atoms: _191  and  _193
REMARK   82  A    between atoms: _193  and  _194
REMARK   83  A    between atoms: _193  and  _196
REMARK   84  A    between atoms: _198  and  _200
REMARK   85  A    between atoms: _200  and  _201
REMARK   86  A    between atoms: _200  and  _203
REMARK   87  A    between atoms: _203  and  _204
REMARK   88  A    between atoms: _207  and  _209
REMARK   89  A    between atoms: _209  and  _210
REMARK   90  A    between atoms: _209  and  _212
REMARK   91  A    between atoms: _212  and  _213
REMARK   92  A    between atoms: _216  and  _218
REMARK   93  A    between atoms: _218  and  _219
REMARK   94  A    between atoms: _218  and  _221
REMARK   95  A    between atoms: _221  and  _222
REMARK   96  A    between atoms: _222  and  _223
REMARK   97  A    between atoms: _223  and  _224
REMARK   98  A    between atoms: _224  and  _225
REMARK   99  A    between atoms: _229  and  _231
REMARK  100  A    between atoms: _231  and  _232
REMARK  101  A    between atoms: _231  and  _234
REMARK  102  A    between atoms: _234  and  _235
REMARK  103  A    between atoms: _240  and  _242
REMARK  104  A    between atoms: _242  and  _243
REMARK  105  A    between atoms: _242  and  _245
REMARK  106  A    between atoms: _245  and  _246
REMARK  107  A    between atoms: _251  and  _252
REMARK  108  A    between atoms: _254  and  _256
REMARK  109  A    between atoms: _256  and  _257
REMARK  110  A    between atoms: _256  and  _259
REMARK  111  A    between atoms: _262  and  _264
REMARK  112  A    between atoms: _264  and  _265
REMARK  113  A    between atoms: _264  and  _267
REMARK  114  A    between atoms: _267  and  _268
REMARK  115  A    between atoms: _268  and  _269
REMARK  116  A    between atoms: _269  and  _270
REMARK  117  A    between atoms: _270  and  _271
REMARK  118  A    between atoms: _275  and  _277
REMARK  119  A    between atoms: _277  and  _278
REMARK  120  A    between atoms: _277  and  _280
REMARK  121  A    between atoms: _280  and  _281
REMARK  122  A    between atoms: _284  and  _286
REMARK  123  A    between atoms: _286  and  _287
REMARK  124  A    between atoms: _286  and  _289
REMARK  125  A    between atoms: _289  and  _290
REMARK  126  A    between atoms: _290  and  _291
REMARK  127  A    between atoms: _291  and  _292
REMARK  128  A    between atoms: _292  and  _293
REMARK                            x       y       z     vdW  Elec       q    Type
REMARK                         _______ _______ _______ _____ _____    ______ ____
ROOT
ATOM      1  CA  LYS A   1      26.295  42.028  40.859  0.00  0.00    +0.145 C 
ENDROOT
BRANCH   1   2
ATOM      2  C   LYS A   1      24.787  42.154  40.843  0.00  0.00    +0.238 C 
ATOM      3  N   ILE A   2      24.168  41.881  41.985  0.00  0.00    -0.298 N 
ATOM      4  H   ILE A   2      24.717  41.541  42.800  0.00  0.00    +0.150 HD
ATOM      5  O   LYS A   1      24.191  42.468  39.812  0.00  0.00    -0.274 OA
BRANCH   3   6
ATOM      6  CA  ILE A   2      22.721  42.054  42.107  0.00  0.00    +0.137 C 
BRANCH   6   7
ATOM      7  CB  ILE A   2      22.233  41.707  43.532  0.00  0.00    +0.026 C 
ATOM      8  CG2 ILE A   2      20.789  42.122  43.719  0.00  0.00    +0.002 C 
BRANCH   7   9
ATOM      9  CG1 ILE A   2      22.348  40.192  43.748  0.00  0.00    +0.002 C 
ATOM     10  CD1 ILE A   2      22.141  39.729  45.188  0.00  0.00    +0.000 C 
ENDBRANCH   7   9
ENDBRANCH   6   7
BRANCH   6  11
ATOM     11  C   ILE A   2      22.301  43.476  41.733  0.00  0.00    +0.227 C 
ATOM     12  O   ILE A   2      21.348  43.683  40.979  0.00  0.00    -0.286 OA
ENDBRANCH   6  11
ENDBRANCH   3   6
ENDBRANCH   1   2
BRANCH   1  13
ATOM     13  N   LYS A   1      26.850  42.681  42.044  0.00  0.00    -0.238 NA
ATOM     14  H   LYS A   1      27.286  42.101  42.789  0.00  0.00    +0.142 HD
ENDBRANCH   1  13
BRANCH   1  15
ATOM     15  CB  LYS A   1      26.663  40.541  40.816  0.00  0.00    +0.026 C 
BRANCH  15  16
ATOM     16  CG  LYS A   1      28.146  40.257  40.649  0.00  0.00    -0.000 C 
BRANCH  16  17
ATOM     17  CD  LYS A   1      28.378  38.798  40.236  0.00  0.00    -0.024 C 
BRANCH  17  18
ATOM     18  CE  LYS A   1      27.708  38.517  38.892  0.00  0.00    -0.086 C 
BRANCH  18  19
ATOM     19  NZ  LYS A   1      28.200  37.270  38.229  0.00  0.00    +0.380 N 
ATOM     20  HZ1 LYS A   1      28.014  36.454  38.847  0.00  0.00    -0.089 HD
ATOM     21  HZ2 LYS A   1      29.222  37.351  38.057  0.00  0.00    -0.089 HD
ATOM     22  HZ3 LYS A   1      27.704  37.141  37.324  0.00  0.00    -0.089 HD
ENDBRANCH  18  19
ENDBRANCH  17  18
ENDBRANCH  16  17
ENDBRANCH  15  16
ENDBRANCH   1  15
TORSDOF 11
REMARK  Name = ../refined-set-2016/4g0z/4g0z_pocket.pdb
REMARK  128 active torsions:
REMARK  status: ('A' for Active; 'I' for Inactive)
REMARK    1  A    between atoms: _1  and  _3
REMARK    2  A    between atoms: _3  and  _4
REMARK    3  A    between atoms: _3  and  _6
REMARK    4  A    between atoms: _6  and  _7
REMARK    5  A    between atoms: _10  and  _12
REMARK    6  A    between atoms: _12  and  _13
REMARK    7  A    between atoms: _12  and  _15
REMARK    8  A    between atoms: _15  and  _16
REMARK    9  A    between atoms: _19  and  _21
REMARK   10  A    between atoms: _21  and  _22
REMARK   11  A    between atoms: _21  and  _24
REMARK   12  A    between atoms: _27  and  _29
REMARK   13  A    between atoms: _29  and  _30
REMARK   14  A    between atoms: _29  and  _32
REMARK   15  A    between atoms: _32  and  _33
REMARK   16  A    between atoms: _37  and  _38
REMARK   17  A    between atoms: _43  and  _45
REMARK   18  A    between atoms: _45  and  _46
REMARK   19  A    between atoms: _45  and  _48
REMARK   20  A    between atoms: _48  and  _49
REMARK   21  A    between atoms: _52  and  _54
REMARK   22  A    between atoms: _54  and  _55
REMARK   23  A    between atoms: _54  and  _57
REMARK   24  A    between atoms: _57  and  _58
REMARK   25  A    between atoms: _63  and  _65
REMARK   26  A    between atoms: _65  and  _66
REMARK   27  A    between atoms: _65  and  _68
REMARK   28  A    between atoms: _68  and  _69
REMARK   29  A    between atoms: _74  and  _76
REMARK   30  A    between atoms: _76  and  _77
REMARK   31  A    between atoms: _79  and  _81
REMARK   32  A    between atoms: _81  and  _82
REMARK   33  A    between atoms: _81  and  _84
REMARK   34  A    between atoms: _84  and  _85
REMARK   35  A    between atoms: _87  and  _89
REMARK   36  A    between atoms: _89  and  _90
REMARK   37  A    between atoms: _89  and  _92
REMARK   38  A    between atoms: _92  and  _93
REMARK   39  A    between atoms: _96  and  _98
REMARK   40  A    between atoms: _98  and  _99
REMARK   41  A    between atoms: _98  and  _101
REMARK   42  A    between atoms: _101  and  _102
REMARK   43  A    between atoms: _107  and  _108
REMARK   44  A    between atoms: _110  and  _112
REMARK   45  A    between atoms: _112  and  _113
REMARK   46  A    between atoms: _115  and  _117
REMARK   47  A    between atoms: _117  and  _118
REMARK   48  A    between atoms: _117  and  _120
REMARK   49  A    between atoms: _120  and  _121
REMARK   50  A    between atoms: _124  and  _126
REMARK   51  A    between atoms: _126  and  _127
REMARK   52  A    between atoms: _126  and  _129
REMARK   53  A    between atoms: _129  and  _130
REMARK   54  A    between atoms: _133  and  _135
REMARK   55  A    between atoms: _135  and  _136
REMARK   56  A    between atoms: _135  and  _138
REMARK   57  A    between atoms: _138  and  _139
REMARK   58  A    between atoms: _139  and  _140
REMARK   59  A    between atoms: _140  and  _141
REMARK   60  A    between atoms: _141  and  _142
REMARK   61  A    between atoms: _146  and  _148
REMARK   62  A    between atoms: _148  and  _149
REMARK   63  A    between atoms: _148  and  _151
REMARK   64  A    between atoms: _151  and  _152
REMARK   65  A    between atoms: _152  and  _153
REMARK   66  A    between atoms: _156  and  _158
REMARK   67  A    between atoms: _158  and  _159
REMARK   68  A    between atoms: _158  and  _161
REMARK   69  A    between atoms: _164  and  _166
REMARK   70  A    between atoms: _166  and  _167
REMARK   71  A    between atoms: _166  and  _169
REMARK   72  A    between atoms: _169  and  _170
REMARK   73  A    between atoms: _172  and  _174
REMARK   74  A    between atoms: _174  and  _175
REMARK   75  A    between atoms: _174  and  _177
REMARK   76  A    between atoms: _177  and  _178
REMARK   77  A    between atoms: _178  and  _179
REMARK   78  A    between atoms: _184  and  _186
REMARK   79  A    between atoms: _186  and  _187
REMARK   80  A    between atoms: _186  and  _189
REMARK   81  A    between atoms: _191  and  _193
REMARK   82  A    between atoms: _193  and  _194
REMARK   83  A    between atoms: _193  and  _196
REMARK   84  A    between atoms: _198  and  _200
REMARK   85  A    between atoms: _200  and  _201
REMARK   86  A    between atoms: _200  and  _203
REMARK   87  A    between atoms: _203  and  _204
REMARK   88  A    between atoms: _207  and  _209
REMARK   89  A    between atoms: _209  and  _210
REMARK   90  A    between atoms: _209  and  _212
REMARK   91  A    between atoms: _212  and  _213
REMARK   92  A    between atoms: _216  and  _218
REMARK   93  A    between atoms: _218  and  _219
REMARK   94  A    between atoms: _218  and  _221
REMARK   95  A    between atoms: _221  and  _222
REMARK   96  A    between atoms: _222  and  _223
REMARK   97  A    between atoms: _223  and  _224
REMARK   98  A    between atoms: _224  and  _225
REMARK   99  A    between atoms: _229  and  _231
REMARK  100  A    between atoms: _231  and  _232
REMARK  101  A    between atoms: _231  and  _234
REMARK  102  A    between atoms: _234  and  _235
REMARK  103  A    between atoms: _240  and  _242
REMARK  104  A    between atoms: _242  and  _243
REMARK  105  A    between atoms: _242  and  _245
REMARK  106  A    between atoms: _245  and  _246
REMARK  107  A    between atoms: _251  and  _252
REMARK  108  A    between atoms: _254  and  _256
REMARK  109  A    between atoms: _256  and  _257
REMARK  110  A    between atoms: _256  and  _259
REMARK  111  A    between atoms: _262  and  _264
REMARK  112  A    between atoms: _264  and  _265
REMARK  113  A    between atoms: _264  and  _267
REMARK  114  A    between atoms: _267  and  _268
REMARK  115  A    between atoms: _268  and  _269
REMARK  116  A    between atoms: _269  and  _270
REMARK  117  A    between atoms: _270  and  _271
REMARK  118  A    between atoms: _275  and  _277
REMARK  119  A    between atoms: _277  and  _278
REMARK  120  A    between atoms: _277  and  _280
REMARK  121  A    between atoms: _280  and  _281
REMARK  122  A    between atoms: _284  and  _286
REMARK  123  A    between atoms: _286  and  _287
REMARK  124  A    between atoms: _286  and  _289
REMARK  125  A    between atoms: _289  and  _290
REMARK  126  A    between atoms: _290  and  _291
REMARK  127  A    between atoms: _291  and  _292
REMARK  128  A    between atoms: _292  and  _293
REMARK                            x       y       z     vdW  Elec       q    Type
REMARK                         _______ _______ _______ _____ _____    ______ ____
ROOT
ATOM      1  CG  LYS A   1      22.223  40.952  37.497  0.00  0.00    -0.000 C 
ENDROOT
BRANCH   1   2
ATOM      2  CB  LYS A   1      21.070  41.815  38.003  0.00  0.00    +0.025 C 
BRANCH   2   3
ATOM      3  CA  LYS A   1      21.090  43.237  37.447  0.00  0.00    +0.133 C 
BRANCH   3   4
ATOM      4  N   LYS A   1      22.166  44.022  38.056  0.00  0.00    -0.239 NA
ATOM      5  H   LYS A   1      22.738  43.608  38.819  0.00  0.00    +0.142 HD
ENDBRANCH   3   4
BRANCH   3   6
ATOM      6  C   LYS A   1      19.715  43.869  37.619  0.00  0.00    +0.224 C 
ATOM      7  O   LYS A   1      18.858  43.719  36.748  0.00  0.00    -0.287 OA
ENDBRANCH   3   6
ENDBRANCH   2   3
ENDBRANCH   1   2
BRANCH   1   8
ATOM      8  CD  LYS A   1      22.294  39.639  38.263  0.00  0.00    -0.024 C 
BRANCH   8   9
ATOM      9  CE  LYS A   1      23.374  38.741  37.707  0.00  0.00    -0.086 C 
BRANCH   9  10
ATOM     10  NZ  LYS A   1      23.555  37.533  38.562  0.00  0.00    +0.380 N 
ATOM     11  HZ1 LYS A   1      23.826  37.827  39.522  0.00  0.00    -0.089 HD
ATOM     12  HZ2 LYS A   1      22.663  37.000  38.600  0.00  0.00    -0.089 HD
ATOM     13  HZ3 LYS A   1      24.302  36.933  38.158  0.00  0.00    -0.089 HD
ENDBRANCH   9  10
ENDBRANCH   8   9
ENDBRANCH   1   8
TORSDOF 7
REMARK  Name = ../refined-set-2016/4g0z/4g0z_pocket.pdb
REMARK  128 active torsions:
REMARK  status: ('A' for Active; 'I' for Inactive)
REMARK    1  A    between atoms: _1  and  _3
REMARK    2  A    between atoms: _3  and  _4
REMARK    3  A    between atoms: _3  and  _6
REMARK    4  A    between atoms: _6  and  _7
REMARK    5  A    between atoms: _10  and  _12
REMARK    6  A    between atoms: _12  and  _13
REMARK    7  A    between atoms: _12  and  _15
REMARK    8  A    between atoms: _15  and  _16
REMARK    9  A    between atoms: _19  and  _21
REMARK   10  A    between atoms: _21  and  _22
REMARK   11  A    between atoms: _21  and  _24
REMARK   12  A    between atoms: _27  and  _29
REMARK   13  A    between atoms: _29  and  _30
REMARK   14  A    between atoms: _29  and  _32
REMARK   15  A    between atoms: _32  and  _33
REMARK   16  A    between atoms: _37  and  _38
REMARK   17  A    between atoms: _43  and  _45
REMARK   18  A    between atoms: _45  and  _46
REMARK   19  A    between atoms: _45  and  _48
REMARK   20  A    between atoms: _48  and  _49
REMARK   21  A    between atoms: _52  and  _54
REMARK   22  A    between atoms: _54  and  _55
REMARK   23  A    between atoms: _54  and  _57
REMARK   24  A    between atoms: _57  and  _58
REMARK   25  A    between atoms: _63  and  _65
REMARK   26  A    between atoms: _65  and  _66
REMARK   27  A    between atoms: _65  and  _68
REMARK   28  A    between atoms: _68  and  _69
REMARK   29  A    between atoms: _74  and  _76
REMARK   30  A    between atoms: _76  and  _77
REMARK   31  A    between atoms: _79  and  _81
REMARK   32  A    between atoms: _81  and  _82
REMARK   33  A    between atoms: _81  and  _84
REMARK   34  A    between atoms: _84  and  _85
REMARK   35  A    between atoms: _87  and  _89
REMARK   36  A    between atoms: _89  and  _90
REMARK   37  A    between atoms: _89  and  _92
REMARK   38  A    between atoms: _92  and  _93
REMARK   39  A    between atoms: _96  and  _98
REMARK   40  A    between atoms: _98  and  _99
REMARK   41  A    between atoms: _98  and  _101
REMARK   42  A    between atoms: _101  and  _102
REMARK   43  A    between atoms: _107  and  _108
REMARK   44  A    between atoms: _110  and  _112
REMARK   45  A    between atoms: _112  and  _113
REMARK   46  A    between atoms: _115  and  _117
REMARK   47  A    between atoms: _117  and  _118
REMARK   48  A    between atoms: _117  and  _120
REMARK   49  A    between atoms: _120  and  _121
REMARK   50  A    between atoms: _124  and  _126
REMARK   51  A    between atoms: _126  and  _127
REMARK   52  A    between atoms: _126  and  _129
REMARK   53  A    between atoms: _129  and  _130
REMARK   54  A    between atoms: _133  and  _135
REMARK   55  A    between atoms: _135  and  _136
REMARK   56  A    between atoms: _135  and  _138
REMARK   57  A    between atoms: _138  and  _139
REMARK   58  A    between atoms: _139  and  _140
REMARK   59  A    between atoms: _140  and  _141
REMARK   60  A    between atoms: _141  and  _142
REMARK   61  A    between atoms: _146  and  _148
REMARK   62  A    between atoms: _148  and  _149
REMARK   63  A    between atoms: _148  and  _151
REMARK   64  A    between atoms: _151  and  _152
REMARK   65  A    between atoms: _152  and  _153
REMARK   66  A    between atoms: _156  and  _158
REMARK   67  A    between atoms: _158  and  _159
REMARK   68  A    between atoms: _158  and  _161
REMARK   69  A    between atoms: _164  and  _166
REMARK   70  A    between atoms: _166  and  _167
REMARK   71  A    between atoms: _166  and  _169
REMARK   72  A    between atoms: _169  and  _170
REMARK   73  A    between atoms: _172  and  _174
REMARK   74  A    between atoms: _174  and  _175
REMARK   75  A    between atoms: _174  and  _177
REMARK   76  A    between atoms: _177  and  _178
REMARK   77  A    between atoms: _178  and  _179
REMARK   78  A    between atoms: _184  and  _186
REMARK   79  A    between atoms: _186  and  _187
REMARK   80  A    between atoms: _186  and  _189
REMARK   81  A    between atoms: _191  and  _193
REMARK   82  A    between atoms: _193  and  _194
REMARK   83  A    between atoms: _193  and  _196
REMARK   84  A    between atoms: _198  and  _200
REMARK   85  A    between atoms: _200  and  _201
REMARK   86  A    between atoms: _200  and  _203
REMARK   87  A    between atoms: _203  and  _204
REMARK   88  A    between atoms: _207  and  _209
REMARK   89  A    between atoms: _209  and  _210
REMARK   90  A    between atoms: _209  and  _212
REMARK   91  A    between atoms: _212  and  _213
REMARK   92  A    between atoms: _216  and  _218
REMARK   93  A    between atoms: _218  and  _219
REMARK   94  A    between atoms: _218  and  _221
REMARK   95  A    between atoms: _221  and  _222
REMARK   96  A    between atoms: _222  and  _223
REMARK   97  A    between atoms: _223  and  _224
REMARK   98  A    between atoms: _224  and  _225
REMARK   99  A    between atoms: _229  and  _231
REMARK  100  A    between atoms: _231  and  _232
REMARK  101  A    between atoms: _231  and  _234
REMARK  102  A    between atoms: _234  and  _235
REMARK  103  A    between atoms: _240  and  _242
REMARK  104  A    between atoms: _242  and  _243
REMARK  105  A    between atoms: _242  and  _245
REMARK  106  A    between atoms: _245  and  _246
REMARK  107  A    between atoms: _251  and  _252
REMARK  108  A    between atoms: _254  and  _256
REMARK  109  A    between atoms: _256  and  _257
REMARK  110  A    between atoms: _256  and  _259
REMARK  111  A    between atoms: _262  and  _264
REMARK  112  A    between atoms: _264  and  _265
REMARK  113  A    between atoms: _264  and  _267
REMARK  114  A    between atoms: _267  and  _268
REMARK  115  A    between atoms: _268  and  _269
REMARK  116  A    between atoms: _269  and  _270
REMARK  117  A    between atoms: _270  and  _271
REMARK  118  A    between atoms: _275  and  _277
REMARK  119  A    between atoms: _277  and  _278
REMARK  120  A    between atoms: _277  and  _280
REMARK  121  A    between atoms: _280  and  _281
REMARK  122  A    between atoms: _284  and  _286
REMARK  123  A    between atoms: _286  and  _287
REMARK  124  A    between atoms: _286  and  _289
REMARK  125  A    between atoms: _289  and  _290
REMARK  126  A    between atoms: _290  and  _291
REMARK  127  A    between atoms: _291  and  _292
REMARK  128  A    between atoms: _292  and  _293
REMARK                            x       y       z     vdW  Elec       q    Type
REMARK                         _______ _______ _______ _____ _____    ______ ____
ROOT
ATOM      1  O   HOH     1      25.309  24.717  32.896  0.00  0.00    +0.000 OA
ENDROOT
TORSDOF 0
REMARK  Name = ../refined-set-2016/4g0z/4g0z_pocket.pdb
REMARK  128 active torsions:
REMARK  status: ('A' for Active; 'I' for Inactive)
REMARK    1  A    between atoms: _1  and  _3
REMARK    2  A    between atoms: _3  and  _4
REMARK    3  A    between atoms: _3  and  _6
REMARK    4  A    between atoms: _6  and  _7
REMARK    5  A    between atoms: _10  and  _12
REMARK    6  A    between atoms: _12  and  _13
REMARK    7  A    between atoms: _12  and  _15
REMARK    8  A    between atoms: _15  and  _16
REMARK    9  A    between atoms: _19  and  _21
REMARK   10  A    between atoms: _21  and  _22
REMARK   11  A    between atoms: _21  and  _24
REMARK   12  A    between atoms: _27  and  _29
REMARK   13  A    between atoms: _29  and  _30
REMARK   14  A    between atoms: _29  and  _32
REMARK   15  A    between atoms: _32  and  _33
REMARK   16  A    between atoms: _37  and  _38
REMARK   17  A    between atoms: _43  and  _45
REMARK   18  A    between atoms: _45  and  _46
REMARK   19  A    between atoms: _45  and  _48
REMARK   20  A    between atoms: _48  and  _49
REMARK   21  A    between atoms: _52  and  _54
REMARK   22  A    between atoms: _54  and  _55
REMARK   23  A    between atoms: _54  and  _57
REMARK   24  A    between atoms: _57  and  _58
REMARK   25  A    between atoms: _63  and  _65
REMARK   26  A    between atoms: _65  and  _66
REMARK   27  A    between atoms: _65  and  _68
REMARK   28  A    between atoms: _68  and  _69
REMARK   29  A    between atoms: _74  and  _76
REMARK   30  A    between atoms: _76  and  _77
REMARK   31  A    between atoms: _79  and  _81
REMARK   32  A    between atoms: _81  and  _82
REMARK   33  A    between atoms: _81  and  _84
REMARK   34  A    between atoms: _84  and  _85
REMARK   35  A    between atoms: _87  and  _89
REMARK   36  A    between atoms: _89  and  _90
REMARK   37  A    between atoms: _89  and  _92
REMARK   38  A    between atoms: _92  and  _93
REMARK   39  A    between atoms: _96  and  _98
REMARK   40  A    between atoms: _98  and  _99
REMARK   41  A    between atoms: _98  and  _101
REMARK   42  A    between atoms: _101  and  _102
REMARK   43  A    between atoms: _107  and  _108
REMARK   44  A    between atoms: _110  and  _112
REMARK   45  A    between atoms: _112  and  _113
REMARK   46  A    between atoms: _115  and  _117
REMARK   47  A    between atoms: _117  and  _118
REMARK   48  A    between atoms: _117  and  _120
REMARK   49  A    between atoms: _120  and  _121
REMARK   50  A    between atoms: _124  and  _126
REMARK   51  A    between atoms: _126  and  _127
REMARK   52  A    between atoms: _126  and  _129
REMARK   53  A    between atoms: _129  and  _130
REMARK   54  A    between atoms: _133  and  _135
REMARK   55  A    between atoms: _135  and  _136
REMARK   56  A    between atoms: _135  and  _138
REMARK   57  A    between atoms: _138  and  _139
REMARK   58  A    between atoms: _139  and  _140
REMARK   59  A    between atoms: _140  and  _141
REMARK   60  A    between atoms: _141  and  _142
REMARK   61  A    between atoms: _146  and  _148
REMARK   62  A    between atoms: _148  and  _149
REMARK   63  A    between atoms: _148  and  _151
REMARK   64  A    between atoms: _151  and  _152
REMARK   65  A    between atoms: _152  and  _153
REMARK   66  A    between atoms: _156  and  _158
REMARK   67  A    between atoms: _158  and  _159
REMARK   68  A    between atoms: _158  and  _161
REMARK   69  A    between atoms: _164  and  _166
REMARK   70  A    between atoms: _166  and  _167
REMARK   71  A    between atoms: _166  and  _169
REMARK   72  A    between atoms: _169  and  _170
REMARK   73  A    between atoms: _172  and  _174
REMARK   74  A    between atoms: _174  and  _175
REMARK   75  A    between atoms: _174  and  _177
REMARK   76  A    between atoms: _177  and  _178
REMARK   77  A    between atoms: _178  and  _179
REMARK   78  A    between atoms: _184  and  _186
REMARK   79  A    between atoms: _186  and  _187
REMARK   80  A    between atoms: _186  and  _189
REMARK   81  A    between atoms: _191  and  _193
REMARK   82  A    between atoms: _193  and  _194
REMARK   83  A    between atoms: _193  and  _196
REMARK   84  A    between atoms: _198  and  _200
REMARK   85  A    between atoms: _200  and  _201
REMARK   86  A    between atoms: _200  and  _203
REMARK   87  A    between atoms: _203  and  _204
REMARK   88  A    between atoms: _207  and  _209
REMARK   89  A    between atoms: _209  and  _210
REMARK   90  A    between atoms: _209  and  _212
REMARK   91  A    between atoms: _212  and  _213
REMARK   92  A    between atoms: _216  and  _218
REMARK   93  A    between atoms: _218  and  _219
REMARK   94  A    between atoms: _218  and  _221
REMARK   95  A    between atoms: _221  and  _222
REMARK   96  A    between atoms: _222  and  _223
REMARK   97  A    between atoms: _223  and  _224
REMARK   98  A    between atoms: _224  and  _225
REMARK   99  A    between atoms: _229  and  _231
REMARK  100  A    between atoms: _231  and  _232
REMARK  101  A    between atoms: _231  and  _234
REMARK  102  A    between atoms: _234  and  _235
REMARK  103  A    between atoms: _240  and  _242
REMARK  104  A    between atoms: _242  and  _243
REMARK  105  A    between atoms: _242  and  _245
REMARK  106  A    between atoms: _245  and  _246
REMARK  107  A    between atoms: _251  and  _252
REMARK  108  A    between atoms: _254  and  _256
REMARK  109  A    between atoms: _256  and  _257
REMARK  110  A    between atoms: _256  and  _259
REMARK  111  A    between atoms: _262  and  _264
REMARK  112  A    between atoms: _264  and  _265
REMARK  113  A    between atoms: _264  and  _267
REMARK  114  A    between atoms: _267  and  _268
REMARK  115  A    between atoms: _268  and  _269
REMARK  116  A    between atoms: _269  and  _270
REMARK  117  A    between atoms: _270  and  _271
REMARK  118  A    between atoms: _275  and  _277
REMARK  119  A    between atoms: _277  and  _278
REMARK  120  A    between atoms: _277  and  _280
REMARK  121  A    between atoms: _280  and  _281
REMARK  122  A    between atoms: _284  and  _286
REMARK  123  A    between atoms: _286  and  _287
REMARK  124  A    between atoms: _286  and  _289
REMARK  125  A    between atoms: _289  and  _290
REMARK  126  A    between atoms: _290  and  _291
REMARK  127  A    between atoms: _291  and  _292
REMARK  128  A    between atoms: _292  and  _293
REMARK                            x       y       z     vdW  Elec       q    Type
REMARK                         _______ _______ _______ _____ _____    ______ ____
ROOT
ATOM      1  O   HOH     1      28.014  24.413  35.380  0.00  0.00    +0.000 OA
ENDROOT
TORSDOF 0
REMARK  Name = ../refined-set-2016/4g0z/4g0z_pocket.pdb
REMARK  128 active torsions:
REMARK  status: ('A' for Active; 'I' for Inactive)
REMARK    1  A    between atoms: _1  and  _3
REMARK    2  A    between atoms: _3  and  _4
REMARK    3  A    between atoms: _3  and  _6
REMARK    4  A    between atoms: _6  and  _7
REMARK    5  A    between atoms: _10  and  _12
REMARK    6  A    between atoms: _12  and  _13
REMARK    7  A    between atoms: _12  and  _15
REMARK    8  A    between atoms: _15  and  _16
REMARK    9  A    between atoms: _19  and  _21
REMARK   10  A    between atoms: _21  and  _22
REMARK   11  A    between atoms: _21  and  _24
REMARK   12  A    between atoms: _27  and  _29
REMARK   13  A    between atoms: _29  and  _30
REMARK   14  A    between atoms: _29  and  _32
REMARK   15  A    between atoms: _32  and  _33
REMARK   16  A    between atoms: _37  and  _38
REMARK   17  A    between atoms: _43  and  _45
REMARK   18  A    between atoms: _45  and  _46
REMARK   19  A    between atoms: _45  and  _48
REMARK   20  A    between atoms: _48  and  _49
REMARK   21  A    between atoms: _52  and  _54
REMARK   22  A    between atoms: _54  and  _55
REMARK   23  A    between atoms: _54  and  _57
REMARK   24  A    between atoms: _57  and  _58
REMARK   25  A    between atoms: _63  and  _65
REMARK   26  A    between atoms: _65  and  _66
REMARK   27  A    between atoms: _65  and  _68
REMARK   28  A    between atoms: _68  and  _69
REMARK   29  A    between atoms: _74  and  _76
REMARK   30  A    between atoms: _76  and  _77
REMARK   31  A    between atoms: _79  and  _81
REMARK   32  A    between atoms: _81  and  _82
REMARK   33  A    between atoms: _81  and  _84
REMARK   34  A    between atoms: _84  and  _85
REMARK   35  A    between atoms: _87  and  _89
REMARK   36  A    between atoms: _89  and  _90
REMARK   37  A    between atoms: _89  and  _92
REMARK   38  A    between atoms: _92  and  _93
REMARK   39  A    between atoms: _96  and  _98
REMARK   40  A    between atoms: _98  and  _99
REMARK   41  A    between atoms: _98  and  _101
REMARK   42  A    between atoms: _101  and  _102
REMARK   43  A    between atoms: _107  and  _108
REMARK   44  A    between atoms: _110  and  _112
REMARK   45  A    between atoms: _112  and  _113
REMARK   46  A    between atoms: _115  and  _117
REMARK   47  A    between atoms: _117  and  _118
REMARK   48  A    between atoms: _117  and  _120
REMARK   49  A    between atoms: _120  and  _121
REMARK   50  A    between atoms: _124  and  _126
REMARK   51  A    between atoms: _126  and  _127
REMARK   52  A    between atoms: _126  and  _129
REMARK   53  A    between atoms: _129  and  _130
REMARK   54  A    between atoms: _133  and  _135
REMARK   55  A    between atoms: _135  and  _136
REMARK   56  A    between atoms: _135  and  _138
REMARK   57  A    between atoms: _138  and  _139
REMARK   58  A    between atoms: _139  and  _140
REMARK   59  A    between atoms: _140  and  _141
REMARK   60  A    between atoms: _141  and  _142
REMARK   61  A    between atoms: _146  and  _148
REMARK   62  A    between atoms: _148  and  _149
REMARK   63  A    between atoms: _148  and  _151
REMARK   64  A    between atoms: _151  and  _152
REMARK   65  A    between atoms: _152  and  _153
REMARK   66  A    between atoms: _156  and  _158
REMARK   67  A    between atoms: _158  and  _159
REMARK   68  A    between atoms: _158  and  _161
REMARK   69  A    between atoms: _164  and  _166
REMARK   70  A    between atoms: _166  and  _167
REMARK   71  A    between atoms: _166  and  _169
REMARK   72  A    between atoms: _169  and  _170
REMARK   73  A    between atoms: _172  and  _174
REMARK   74  A    between atoms: _174  and  _175
REMARK   75  A    between atoms: _174  and  _177
REMARK   76  A    between atoms: _177  and  _178
REMARK   77  A    between atoms: _178  and  _179
REMARK   78  A    between atoms: _184  and  _186
REMARK   79  A    between atoms: _186  and  _187
REMARK   80  A    between atoms: _186  and  _189
REMARK   81  A    between atoms: _191  and  _193
REMARK   82  A    between atoms: _193  and  _194
REMARK   83  A    between atoms: _193  and  _196
REMARK   84  A    between atoms: _198  and  _200
REMARK   85  A    between atoms: _200  and  _201
REMARK   86  A    between atoms: _200  and  _203
REMARK   87  A    between atoms: _203  and  _204
REMARK   88  A    between atoms: _207  and  _209
REMARK   89  A    between atoms: _209  and  _210
REMARK   90  A    between atoms: _209  and  _212
REMARK   91  A    between atoms: _212  and  _213
REMARK   92  A    between atoms: _216  and  _218
REMARK   93  A    between atoms: _218  and  _219
REMARK   94  A    between atoms: _218  and  _221
REMARK   95  A    between atoms: _221  and  _222
REMARK   96  A    between atoms: _222  and  _223
REMARK   97  A    between atoms: _223  and  _224
REMARK   98  A    between atoms: _224  and  _225
REMARK   99  A    between atoms: _229  and  _231
REMARK  100  A    between atoms: _231  and  _232
REMARK  101  A    between atoms: _231  and  _234
REMARK  102  A    between atoms: _234  and  _235
REMARK  103  A    between atoms: _240  and  _242
REMARK  104  A    between atoms: _242  and  _243
REMARK  105  A    between atoms: _242  and  _245
REMARK  106  A    between atoms: _245  and  _246
REMARK  107  A    between atoms: _251  and  _252
REMARK  108  A    between atoms: _254  and  _256
REMARK  109  A    between atoms: _256  and  _257
REMARK  110  A    between atoms: _256  and  _259
REMARK  111  A    between atoms: _262  and  _264
REMARK  112  A    between atoms: _264  and  _265
REMARK  113  A    between atoms: _264  and  _267
REMARK  114  A    between atoms: _267  and  _268
REMARK  115  A    between atoms: _268  and  _269
REMARK  116  A    between atoms: _269  and  _270
REMARK  117  A    between atoms: _270  and  _271
REMARK  118  A    between atoms: _275  and  _277
REMARK  119  A    between atoms: _277  and  _278
REMARK  120  A    between atoms: _277  and  _280
REMARK  121  A    between atoms: _280  and  _281
REMARK  122  A    between atoms: _284  and  _286
REMARK  123  A    between atoms: _286  and  _287
REMARK  124  A    between atoms: _286  and  _289
REMARK  125  A    between atoms: _289  and  _290
REMARK  126  A    between atoms: _290  and  _291
REMARK  127  A    between atoms: _291  and  _292
REMARK  128  A    between atoms: _292  and  _293
REMARK                            x       y       z     vdW  Elec       q    Type
REMARK                         _______ _______ _______ _____ _____    ______ ____
ROOT
ATOM      1  O   HOH     1      18.173  35.404  35.122  0.00  0.00    +0.000 OA
ENDROOT
TORSDOF 0
REMARK  Name = ../refined-set-2016/4g0z/4g0z_pocket.pdb
REMARK  128 active torsions:
REMARK  status: ('A' for Active; 'I' for Inactive)
REMARK    1  A    between atoms: _1  and  _3
REMARK    2  A    between atoms: _3  and  _4
REMARK    3  A    between atoms: _3  and  _6
REMARK    4  A    between atoms: _6  and  _7
REMARK    5  A    between atoms: _10  and  _12
REMARK    6  A    between atoms: _12  and  _13
REMARK    7  A    between atoms: _12  and  _15
REMARK    8  A    between atoms: _15  and  _16
REMARK    9  A    between atoms: _19  and  _21
REMARK   10  A    between atoms: _21  and  _22
REMARK   11  A    between atoms: _21  and  _24
REMARK   12  A    between atoms: _27  and  _29
REMARK   13  A    between atoms: _29  and  _30
REMARK   14  A    between atoms: _29  and  _32
REMARK   15  A    between atoms: _32  and  _33
REMARK   16  A    between atoms: _37  and  _38
REMARK   17  A    between atoms: _43  and  _45
REMARK   18  A    between atoms: _45  and  _46
REMARK   19  A    between atoms: _45  and  _48
REMARK   20  A    between atoms: _48  and  _49
REMARK   21  A    between atoms: _52  and  _54
REMARK   22  A    between atoms: _54  and  _55
REMARK   23  A    between atoms: _54  and  _57
REMARK   24  A    between atoms: _57  and  _58
REMARK   25  A    between atoms: _63  and  _65
REMARK   26  A    between atoms: _65  and  _66
REMARK   27  A    between atoms: _65  and  _68
REMARK   28  A    between atoms: _68  and  _69
REMARK   29  A    between atoms: _74  and  _76
REMARK   30  A    between atoms: _76  and  _77
REMARK   31  A    between atoms: _79  and  _81
REMARK   32  A    between atoms: _81  and  _82
REMARK   33  A    between atoms: _81  and  _84
REMARK   34  A    between atoms: _84  and  _85
REMARK   35  A    between atoms: _87  and  _89
REMARK   36  A    between atoms: _89  and  _90
REMARK   37  A    between atoms: _89  and  _92
REMARK   38  A    between atoms: _92  and  _93
REMARK   39  A    between atoms: _96  and  _98
REMARK   40  A    between atoms: _98  and  _99
REMARK   41  A    between atoms: _98  and  _101
REMARK   42  A    between atoms: _101  and  _102
REMARK   43  A    between atoms: _107  and  _108
REMARK   44  A    between atoms: _110  and  _112
REMARK   45  A    between atoms: _112  and  _113
REMARK   46  A    between atoms: _115  and  _117
REMARK   47  A    between atoms: _117  and  _118
REMARK   48  A    between atoms: _117  and  _120
REMARK   49  A    between atoms: _120  and  _121
REMARK   50  A    between atoms: _124  and  _126
REMARK   51  A    between atoms: _126  and  _127
REMARK   52  A    between atoms: _126  and  _129
REMARK   53  A    between atoms: _129  and  _130
REMARK   54  A    between atoms: _133  and  _135
REMARK   55  A    between atoms: _135  and  _136
REMARK   56  A    between atoms: _135  and  _138
REMARK   57  A    between atoms: _138  and  _139
REMARK   58  A    between atoms: _139  and  _140
REMARK   59  A    between atoms: _140  and  _141
REMARK   60  A    between atoms: _141  and  _142
REMARK   61  A    between atoms: _146  and  _148
REMARK   62  A    between atoms: _148  and  _149
REMARK   63  A    between atoms: _148  and  _151
REMARK   64  A    between atoms: _151  and  _152
REMARK   65  A    between atoms: _152  and  _153
REMARK   66  A    between atoms: _156  and  _158
REMARK   67  A    between atoms: _158  and  _159
REMARK   68  A    between atoms: _158  and  _161
REMARK   69  A    between atoms: _164  and  _166
REMARK   70  A    between atoms: _166  and  _167
REMARK   71  A    between atoms: _166  and  _169
REMARK   72  A    between atoms: _169  and  _170
REMARK   73  A    between atoms: _172  and  _174
REMARK   74  A    between atoms: _174  and  _175
REMARK   75  A    between atoms: _174  and  _177
REMARK   76  A    between atoms: _177  and  _178
REMARK   77  A    between atoms: _178  and  _179
REMARK   78  A    between atoms: _184  and  _186
REMARK   79  A    between atoms: _186  and  _187
REMARK   80  A    between atoms: _186  and  _189
REMARK   81  A    between atoms: _191  and  _193
REMARK   82  A    between atoms: _193  and  _194
REMARK   83  A    between atoms: _193  and  _196
REMARK   84  A    between atoms: _198  and  _200
REMARK   85  A    between atoms: _200  and  _201
REMARK   86  A    between atoms: _200  and  _203
REMARK   87  A    between atoms: _203  and  _204
REMARK   88  A    between atoms: _207  and  _209
REMARK   89  A    between atoms: _209  and  _210
REMARK   90  A    between atoms: _209  and  _212
REMARK   91  A    between atoms: _212  and  _213
REMARK   92  A    between atoms: _216  and  _218
REMARK   93  A    between atoms: _218  and  _219
REMARK   94  A    between atoms: _218  and  _221
REMARK   95  A    between atoms: _221  and  _222
REMARK   96  A    between atoms: _222  and  _223
REMARK   97  A    between atoms: _223  and  _224
REMARK   98  A    between atoms: _224  and  _225
REMARK   99  A    between atoms: _229  and  _231
REMARK  100  A    between atoms: _231  and  _232
REMARK  101  A    between atoms: _231  and  _234
REMARK  102  A    between atoms: _234  and  _235
REMARK  103  A    between atoms: _240  and  _242
REMARK  104  A    between atoms: _242  and  _243
REMARK  105  A    between atoms: _242  and  _245
REMARK  106  A    between atoms: _245  and  _246
REMARK  107  A    between atoms: _251  and  _252
REMARK  108  A    between atoms: _254  and  _256
REMARK  109  A    between atoms: _256  and  _257
REMARK  110  A    between atoms: _256  and  _259
REMARK  111  A    between atoms: _262  and  _264
REMARK  112  A    between atoms: _264  and  _265
REMARK  113  A    between atoms: _264  and  _267
REMARK  114  A    between atoms: _267  and  _268
REMARK  115  A    between atoms: _268  and  _269
REMARK  116  A    between atoms: _269  and  _270
REMARK  117  A    between atoms: _270  and  _271
REMARK  118  A    between atoms: _275  and  _277
REMARK  119  A    between atoms: _277  and  _278
REMARK  120  A    between atoms: _277  and  _280
REMARK  121  A    between atoms: _280  and  _281
REMARK  122  A    between atoms: _284  and  _286
REMARK  123  A    between atoms: _286  and  _287
REMARK  124  A    between atoms: _286  and  _289
REMARK  125  A    between atoms: _289  and  _290
REMARK  126  A    between atoms: _290  and  _291
REMARK  127  A    between atoms: _291  and  _292
REMARK  128  A    between atoms: _292  and  _293
REMARK                            x       y       z     vdW  Elec       q    Type
REMARK                         _______ _______ _______ _____ _____    ______ ____
ROOT
ATOM      1  O   HOH     1      29.704  23.515  37.694  0.00  0.00    +0.000 OA
ENDROOT
TORSDOF 0
REMARK  Name = ../refined-set-2016/4g0z/4g0z_pocket.pdb
REMARK  128 active torsions:
REMARK  status: ('A' for Active; 'I' for Inactive)
REMARK    1  A    between atoms: _1  and  _3
REMARK    2  A    between atoms: _3  and  _4
REMARK    3  A    between atoms: _3  and  _6
REMARK    4  A    between atoms: _6  and  _7
REMARK    5  A    between atoms: _10  and  _12
REMARK    6  A    between atoms: _12  and  _13
REMARK    7  A    between atoms: _12  and  _15
REMARK    8  A    between atoms: _15  and  _16
REMARK    9  A    between atoms: _19  and  _21
REMARK   10  A    between atoms: _21  and  _22
REMARK   11  A    between atoms: _21  and  _24
REMARK   12  A    between atoms: _27  and  _29
REMARK   13  A    between atoms: _29  and  _30
REMARK   14  A    between atoms: _29  and  _32
REMARK   15  A    between atoms: _32  and  _33
REMARK   16  A    between atoms: _37  and  _38
REMARK   17  A    between atoms: _43  and  _45
REMARK   18  A    between atoms: _45  and  _46
REMARK   19  A    between atoms: _45  and  _48
REMARK   20  A    between atoms: _48  and  _49
REMARK   21  A    between atoms: _52  and  _54
REMARK   22  A    between atoms: _54  and  _55
REMARK   23  A    between atoms: _54  and  _57
REMARK   24  A    between atoms: _57  and  _58
REMARK   25  A    between atoms: _63  and  _65
REMARK   26  A    between atoms: _65  and  _66
REMARK   27  A    between atoms: _65  and  _68
REMARK   28  A    between atoms: _68  and  _69
REMARK   29  A    between atoms: _74  and  _76
REMARK   30  A    between atoms: _76  and  _77
REMARK   31  A    between atoms: _79  and  _81
REMARK   32  A    between atoms: _81  and  _82
REMARK   33  A    between atoms: _81  and  _84
REMARK   34  A    between atoms: _84  and  _85
REMARK   35  A    between atoms: _87  and  _89
REMARK   36  A    between atoms: _89  and  _90
REMARK   37  A    between atoms: _89  and  _92
REMARK   38  A    between atoms: _92  and  _93
REMARK   39  A    between atoms: _96  and  _98
REMARK   40  A    between atoms: _98  and  _99
REMARK   41  A    between atoms: _98  and  _101
REMARK   42  A    between atoms: _101  and  _102
REMARK   43  A    between atoms: _107  and  _108
REMARK   44  A    between atoms: _110  and  _112
REMARK   45  A    between atoms: _112  and  _113
REMARK   46  A    between atoms: _115  and  _117
REMARK   47  A    between atoms: _117  and  _118
REMARK   48  A    between atoms: _117  and  _120
REMARK   49  A    between atoms: _120  and  _121
REMARK   50  A    between atoms: _124  and  _126
REMARK   51  A    between atoms: _126  and  _127
REMARK   52  A    between atoms: _126  and  _129
REMARK   53  A    between atoms: _129  and  _130
REMARK   54  A    between atoms: _133  and  _135
REMARK   55  A    between atoms: _135  and  _136
REMARK   56  A    between atoms: _135  and  _138
REMARK   57  A    between atoms: _138  and  _139
REMARK   58  A    between atoms: _139  and  _140
REMARK   59  A    between atoms: _140  and  _141
REMARK   60  A    between atoms: _141  and  _142
REMARK   61  A    between atoms: _146  and  _148
REMARK   62  A    between atoms: _148  and  _149
REMARK   63  A    between atoms: _148  and  _151
REMARK   64  A    between atoms: _151  and  _152
REMARK   65  A    between atoms: _152  and  _153
REMARK   66  A    between atoms: _156  and  _158
REMARK   67  A    between atoms: _158  and  _159
REMARK   68  A    between atoms: _158  and  _161
REMARK   69  A    between atoms: _164  and  _166
REMARK   70  A    between atoms: _166  and  _167
REMARK   71  A    between atoms: _166  and  _169
REMARK   72  A    between atoms: _169  and  _170
REMARK   73  A    between atoms: _172  and  _174
REMARK   74  A    between atoms: _174  and  _175
REMARK   75  A    between atoms: _174  and  _177
REMARK   76  A    between atoms: _177  and  _178
REMARK   77  A    between atoms: _178  and  _179
REMARK   78  A    between atoms: _184  and  _186
REMARK   79  A    between atoms: _186  and  _187
REMARK   80  A    between atoms: _186  and  _189
REMARK   81  A    between atoms: _191  and  _193
REMARK   82  A    between atoms: _193  and  _194
REMARK   83  A    between atoms: _193  and  _196
REMARK   84  A    between atoms: _198  and  _200
REMARK   85  A    between atoms: _200  and  _201
REMARK   86  A    between atoms: _200  and  _203
REMARK   87  A    between atoms: _203  and  _204
REMARK   88  A    between atoms: _207  and  _209
REMARK   89  A    between atoms: _209  and  _210
REMARK   90  A    between atoms: _209  and  _212
REMARK   91  A    between atoms: _212  and  _213
REMARK   92  A    between atoms: _216  and  _218
REMARK   93  A    between atoms: _218  and  _219
REMARK   94  A    between atoms: _218  and  _221
REMARK   95  A    between atoms: _221  and  _222
REMARK   96  A    between atoms: _222  and  _223
REMARK   97  A    between atoms: _223  and  _224
REMARK   98  A    between atoms: _224  and  _225
REMARK   99  A    between atoms: _229  and  _231
REMARK  100  A    between atoms: _231  and  _232
REMARK  101  A    between atoms: _231  and  _234
REMARK  102  A    between atoms: _234  and  _235
REMARK  103  A    between atoms: _240  and  _242
REMARK  104  A    between atoms: _242  and  _243
REMARK  105  A    between atoms: _242  and  _245
REMARK  106  A    between atoms: _245  and  _246
REMARK  107  A    between atoms: _251  and  _252
REMARK  108  A    between atoms: _254  and  _256
REMARK  109  A    between atoms: _256  and  _257
REMARK  110  A    between atoms: _256  and  _259
REMARK  111  A    between atoms: _262  and  _264
REMARK  112  A    between atoms: _264  and  _265
REMARK  113  A    between atoms: _264  and  _267
REMARK  114  A    between atoms: _267  and  _268
REMARK  115  A    between atoms: _268  and  _269
REMARK  116  A    between atoms: _269  and  _270
REMARK  117  A    between atoms: _270  and  _271
REMARK  118  A    between atoms: _275  and  _277
REMARK  119  A    between atoms: _277  and  _278
REMARK  120  A    between atoms: _277  and  _280
REMARK  121  A    between atoms: _280  and  _281
REMARK  122  A    between atoms: _284  and  _286
REMARK  123  A    between atoms: _286  and  _287
REMARK  124  A    between atoms: _286  and  _289
REMARK  125  A    between atoms: _289  and  _290
REMARK  126  A    between atoms: _290  and  _291
REMARK  127  A    between atoms: _291  and  _292
REMARK  128  A    between atoms: _292  and  _293
REMARK                            x       y       z     vdW  Elec       q    Type
REMARK                         _______ _______ _______ _____ _____    ______ ____
ROOT
ATOM      1  O   HOH     1      25.892  41.773  37.546  0.00  0.00    +0.000 OA
ENDROOT
TORSDOF 0
REMARK  Name = ../refined-set-2016/4g0z/4g0z_pocket.pdb
REMARK  128 active torsions:
REMARK  status: ('A' for Active; 'I' for Inactive)
REMARK    1  A    between atoms: _1  and  _3
REMARK    2  A    between atoms: _3  and  _4
REMARK    3  A    between atoms: _3  and  _6
REMARK    4  A    between atoms: _6  and  _7
REMARK    5  A    between atoms: _10  and  _12
REMARK    6  A    between atoms: _12  and  _13
REMARK    7  A    between atoms: _12  and  _15
REMARK    8  A    between atoms: _15  and  _16
REMARK    9  A    between atoms: _19  and  _21
REMARK   10  A    between atoms: _21  and  _22
REMARK   11  A    between atoms: _21  and  _24
REMARK   12  A    between atoms: _27  and  _29
REMARK   13  A    between atoms: _29  and  _30
REMARK   14  A    between atoms: _29  and  _32
REMARK   15  A    between atoms: _32  and  _33
REMARK   16  A    between atoms: _37  and  _38
REMARK   17  A    between atoms: _43  and  _45
REMARK   18  A    between atoms: _45  and  _46
REMARK   19  A    between atoms: _45  and  _48
REMARK   20  A    between atoms: _48  and  _49
REMARK   21  A    between atoms: _52  and  _54
REMARK   22  A    between atoms: _54  and  _55
REMARK   23  A    between atoms: _54  and  _57
REMARK   24  A    between atoms: _57  and  _58
REMARK   25  A    between atoms: _63  and  _65
REMARK   26  A    between atoms: _65  and  _66
REMARK   27  A    between atoms: _65  and  _68
REMARK   28  A    between atoms: _68  and  _69
REMARK   29  A    between atoms: _74  and  _76
REMARK   30  A    between atoms: _76  and  _77
REMARK   31  A    between atoms: _79  and  _81
REMARK   32  A    between atoms: _81  and  _82
REMARK   33  A    between atoms: _81  and  _84
REMARK   34  A    between atoms: _84  and  _85
REMARK   35  A    between atoms: _87  and  _89
REMARK   36  A    between atoms: _89  and  _90
REMARK   37  A    between atoms: _89  and  _92
REMARK   38  A    between atoms: _92  and  _93
REMARK   39  A    between atoms: _96  and  _98
REMARK   40  A    between atoms: _98  and  _99
REMARK   41  A    between atoms: _98  and  _101
REMARK   42  A    between atoms: _101  and  _102
REMARK   43  A    between atoms: _107  and  _108
REMARK   44  A    between atoms: _110  and  _112
REMARK   45  A    between atoms: _112  and  _113
REMARK   46  A    between atoms: _115  and  _117
REMARK   47  A    between atoms: _117  and  _118
REMARK   48  A    between atoms: _117  and  _120
REMARK   49  A    between atoms: _120  and  _121
REMARK   50  A    between atoms: _124  and  _126
REMARK   51  A    between atoms: _126  and  _127
REMARK   52  A    between atoms: _126  and  _129
REMARK   53  A    between atoms: _129  and  _130
REMARK   54  A    between atoms: _133  and  _135
REMARK   55  A    between atoms: _135  and  _136
REMARK   56  A    between atoms: _135  and  _138
REMARK   57  A    between atoms: _138  and  _139
REMARK   58  A    between atoms: _139  and  _140
REMARK   59  A    between atoms: _140  and  _141
REMARK   60  A    between atoms: _141  and  _142
REMARK   61  A    between atoms: _146  and  _148
REMARK   62  A    between atoms: _148  and  _149
REMARK   63  A    between atoms: _148  and  _151
REMARK   64  A    between atoms: _151  and  _152
REMARK   65  A    between atoms: _152  and  _153
REMARK   66  A    between atoms: _156  and  _158
REMARK   67  A    between atoms: _158  and  _159
REMARK   68  A    between atoms: _158  and  _161
REMARK   69  A    between atoms: _164  and  _166
REMARK   70  A    between atoms: _166  and  _167
REMARK   71  A    between atoms: _166  and  _169
REMARK   72  A    between atoms: _169  and  _170
REMARK   73  A    between atoms: _172  and  _174
REMARK   74  A    between atoms: _174  and  _175
REMARK   75  A    between atoms: _174  and  _177
REMARK   76  A    between atoms: _177  and  _178
REMARK   77  A    between atoms: _178  and  _179
REMARK   78  A    between atoms: _184  and  _186
REMARK   79  A    between atoms: _186  and  _187
REMARK   80  A    between atoms: _186  and  _189
REMARK   81  A    between atoms: _191  and  _193
REMARK   82  A    between atoms: _193  and  _194
REMARK   83  A    between atoms: _193  and  _196
REMARK   84  A    between atoms: _198  and  _200
REMARK   85  A    between atoms: _200  and  _201
REMARK   86  A    between atoms: _200  and  _203
REMARK   87  A    between atoms: _203  and  _204
REMARK   88  A    between atoms: _207  and  _209
REMARK   89  A    between atoms: _209  and  _210
REMARK   90  A    between atoms: _209  and  _212
REMARK   91  A    between atoms: _212  and  _213
REMARK   92  A    between atoms: _216  and  _218
REMARK   93  A    between atoms: _218  and  _219
REMARK   94  A    between atoms: _218  and  _221
REMARK   95  A    between atoms: _221  and  _222
REMARK   96  A    between atoms: _222  and  _223
REMARK   97  A    between atoms: _223  and  _224
REMARK   98  A    between atoms: _224  and  _225
REMARK   99  A    between atoms: _229  and  _231
REMARK  100  A    between atoms: _231  and  _232
REMARK  101  A    between atoms: _231  and  _234
REMARK  102  A    between atoms: _234  and  _235
REMARK  103  A    between atoms: _240  and  _242
REMARK  104  A    between atoms: _242  and  _243
REMARK  105  A    between atoms: _242  and  _245
REMARK  106  A    between atoms: _245  and  _246
REMARK  107  A    between atoms: _251  and  _252
REMARK  108  A    between atoms: _254  and  _256
REMARK  109  A    between atoms: _256  and  _257
REMARK  110  A    between atoms: _256  and  _259
REMARK  111  A    between atoms: _262  and  _264
REMARK  112  A    between atoms: _264  and  _265
REMARK  113  A    between atoms: _264  and  _267
REMARK  114  A    between atoms: _267  and  _268
REMARK  115  A    between atoms: _268  and  _269
REMARK  116  A    between atoms: _269  and  _270
REMARK  117  A    between atoms: _270  and  _271
REMARK  118  A    between atoms: _275  and  _277
REMARK  119  A    between atoms: _277  and  _278
REMARK  120  A    between atoms: _277  and  _280
REMARK  121  A    between atoms: _280  and  _281
REMARK  122  A    between atoms: _284  and  _286
REMARK  123  A    between atoms: _286  and  _287
REMARK  124  A    between atoms: _286  and  _289
REMARK  125  A    between atoms: _289  and  _290
REMARK  126  A    between atoms: _290  and  _291
REMARK  127  A    between atoms: _291  and  _292
REMARK  128  A    between atoms: _292  and  _293
REMARK                            x       y       z     vdW  Elec       q    Type
REMARK                         _______ _______ _______ _____ _____    ______ ____
ROOT
ATOM      1  O   HOH     1      23.076  39.760  33.977  0.00  0.00    +0.000 OA
ENDROOT
TORSDOF 0
REMARK  Name = ../refined-set-2016/4g0z/4g0z_pocket.pdb
REMARK  128 active torsions:
REMARK  status: ('A' for Active; 'I' for Inactive)
REMARK    1  A    between atoms: _1  and  _3
REMARK    2  A    between atoms: _3  and  _4
REMARK    3  A    between atoms: _3  and  _6
REMARK    4  A    between atoms: _6  and  _7
REMARK    5  A    between atoms: _10  and  _12
REMARK    6  A    between atoms: _12  and  _13
REMARK    7  A    between atoms: _12  and  _15
REMARK    8  A    between atoms: _15  and  _16
REMARK    9  A    between atoms: _19  and  _21
REMARK   10  A    between atoms: _21  and  _22
REMARK   11  A    between atoms: _21  and  _24
REMARK   12  A    between atoms: _27  and  _29
REMARK   13  A    between atoms: _29  and  _30
REMARK   14  A    between atoms: _29  and  _32
REMARK   15  A    between atoms: _32  and  _33
REMARK   16  A    between atoms: _37  and  _38
REMARK   17  A    between atoms: _43  and  _45
REMARK   18  A    between atoms: _45  and  _46
REMARK   19  A    between atoms: _45  and  _48
REMARK   20  A    between atoms: _48  and  _49
REMARK   21  A    between atoms: _52  and  _54
REMARK   22  A    between atoms: _54  and  _55
REMARK   23  A    between atoms: _54  and  _57
REMARK   24  A    between atoms: _57  and  _58
REMARK   25  A    between atoms: _63  and  _65
REMARK   26  A    between atoms: _65  and  _66
REMARK   27  A    between atoms: _65  and  _68
REMARK   28  A    between atoms: _68  and  _69
REMARK   29  A    between atoms: _74  and  _76
REMARK   30  A    between atoms: _76  and  _77
REMARK   31  A    between atoms: _79  and  _81
REMARK   32  A    between atoms: _81  and  _82
REMARK   33  A    between atoms: _81  and  _84
REMARK   34  A    between atoms: _84  and  _85
REMARK   35  A    between atoms: _87  and  _89
REMARK   36  A    between atoms: _89  and  _90
REMARK   37  A    between atoms: _89  and  _92
REMARK   38  A    between atoms: _92  and  _93
REMARK   39  A    between atoms: _96  and  _98
REMARK   40  A    between atoms: _98  and  _99
REMARK   41  A    between atoms: _98  and  _101
REMARK   42  A    between atoms: _101  and  _102
REMARK   43  A    between atoms: _107  and  _108
REMARK   44  A    between atoms: _110  and  _112
REMARK   45  A    between atoms: _112  and  _113
REMARK   46  A    between atoms: _115  and  _117
REMARK   47  A    between atoms: _117  and  _118
REMARK   48  A    between atoms: _117  and  _120
REMARK   49  A    between atoms: _120  and  _121
REMARK   50  A    between atoms: _124  and  _126
REMARK   51  A    between atoms: _126  and  _127
REMARK   52  A    between atoms: _126  and  _129
REMARK   53  A    between atoms: _129  and  _130
REMARK   54  A    between atoms: _133  and  _135
REMARK   55  A    between atoms: _135  and  _136
REMARK   56  A    between atoms: _135  and  _138
REMARK   57  A    between atoms: _138  and  _139
REMARK   58  A    between atoms: _139  and  _140
REMARK   59  A    between atoms: _140  and  _141
REMARK   60  A    between atoms: _141  and  _142
REMARK   61  A    between atoms: _146  and  _148
REMARK   62  A    between atoms: _148  and  _149
REMARK   63  A    between atoms: _148  and  _151
REMARK   64  A    between atoms: _151  and  _152
REMARK   65  A    between atoms: _152  and  _153
REMARK   66  A    between atoms: _156  and  _158
REMARK   67  A    between atoms: _158  and  _159
REMARK   68  A    between atoms: _158  and  _161
REMARK   69  A    between atoms: _164  and  _166
REMARK   70  A    between atoms: _166  and  _167
REMARK   71  A    between atoms: _166  and  _169
REMARK   72  A    between atoms: _169  and  _170
REMARK   73  A    between atoms: _172  and  _174
REMARK   74  A    between atoms: _174  and  _175
REMARK   75  A    between atoms: _174  and  _177
REMARK   76  A    between atoms: _177  and  _178
REMARK   77  A    between atoms: _178  and  _179
REMARK   78  A    between atoms: _184  and  _186
REMARK   79  A    between atoms: _186  and  _187
REMARK   80  A    between atoms: _186  and  _189
REMARK   81  A    between atoms: _191  and  _193
REMARK   82  A    between atoms: _193  and  _194
REMARK   83  A    between atoms: _193  and  _196
REMARK   84  A    between atoms: _198  and  _200
REMARK   85  A    between atoms: _200  and  _201
REMARK   86  A    between atoms: _200  and  _203
REMARK   87  A    between atoms: _203  and  _204
REMARK   88  A    between atoms: _207  and  _209
REMARK   89  A    between atoms: _209  and  _210
REMARK   90  A    between atoms: _209  and  _212
REMARK   91  A    between atoms: _212  and  _213
REMARK   92  A    between atoms: _216  and  _218
REMARK   93  A    between atoms: _218  and  _219
REMARK   94  A    between atoms: _218  and  _221
REMARK   95  A    between atoms: _221  and  _222
REMARK   96  A    between atoms: _222  and  _223
REMARK   97  A    between atoms: _223  and  _224
REMARK   98  A    between atoms: _224  and  _225
REMARK   99  A    between atoms: _229  and  _231
REMARK  100  A    between atoms: _231  and  _232
REMARK  101  A    between atoms: _231  and  _234
REMARK  102  A    between atoms: _234  and  _235
REMARK  103  A    between atoms: _240  and  _242
REMARK  104  A    between atoms: _242  and  _243
REMARK  105  A    between atoms: _242  and  _245
REMARK  106  A    between atoms: _245  and  _246
REMARK  107  A    between atoms: _251  and  _252
REMARK  108  A    between atoms: _254  and  _256
REMARK  109  A    between atoms: _256  and  _257
REMARK  110  A    between atoms: _256  and  _259
REMARK  111  A    between atoms: _262  and  _264
REMARK  112  A    between atoms: _264  and  _265
REMARK  113  A    between atoms: _264  and  _267
REMARK  114  A    between atoms: _267  and  _268
REMARK  115  A    between atoms: _268  and  _269
REMARK  116  A    between atoms: _269  and  _270
REMARK  117  A    between atoms: _270  and  _271
REMARK  118  A    between atoms: _275  and  _277
REMARK  119  A    between atoms: _277  and  _278
REMARK  120  A    between atoms: _277  and  _280
REMARK  121  A    between atoms: _280  and  _281
REMARK  122  A    between atoms: _284  and  _286
REMARK  123  A    between atoms: _286  and  _287
REMARK  124  A    between atoms: _286  and  _289
REMARK  125  A    between atoms: _289  and  _290
REMARK  126  A    between atoms: _290  and  _291
REMARK  127  A    between atoms: _291  and  _292
REMARK  128  A    between atoms: _292  and  _293
REMARK                            x       y       z     vdW  Elec       q    Type
REMARK                         _______ _______ _______ _____ _____    ______ ____
ROOT
ATOM      1  O   HOH     1      29.396  35.487  41.931  0.00  0.00    +0.000 OA
ENDROOT
TORSDOF 0
REMARK  Name = ../refined-set-2016/4g0z/4g0z_pocket.pdb
REMARK  128 active torsions:
REMARK  status: ('A' for Active; 'I' for Inactive)
REMARK    1  A    between atoms: _1  and  _3
REMARK    2  A    between atoms: _3  and  _4
REMARK    3  A    between atoms: _3  and  _6
REMARK    4  A    between atoms: _6  and  _7
REMARK    5  A    between atoms: _10  and  _12
REMARK    6  A    between atoms: _12  and  _13
REMARK    7  A    between atoms: _12  and  _15
REMARK    8  A    between atoms: _15  and  _16
REMARK    9  A    between atoms: _19  and  _21
REMARK   10  A    between atoms: _21  and  _22
REMARK   11  A    between atoms: _21  and  _24
REMARK   12  A    between atoms: _27  and  _29
REMARK   13  A    between atoms: _29  and  _30
REMARK   14  A    between atoms: _29  and  _32
REMARK   15  A    between atoms: _32  and  _33
REMARK   16  A    between atoms: _37  and  _38
REMARK   17  A    between atoms: _43  and  _45
REMARK   18  A    between atoms: _45  and  _46
REMARK   19  A    between atoms: _45  and  _48
REMARK   20  A    between atoms: _48  and  _49
REMARK   21  A    between atoms: _52  and  _54
REMARK   22  A    between atoms: _54  and  _55
REMARK   23  A    between atoms: _54  and  _57
REMARK   24  A    between atoms: _57  and  _58
REMARK   25  A    between atoms: _63  and  _65
REMARK   26  A    between atoms: _65  and  _66
REMARK   27  A    between atoms: _65  and  _68
REMARK   28  A    between atoms: _68  and  _69
REMARK   29  A    between atoms: _74  and  _76
REMARK   30  A    between atoms: _76  and  _77
REMARK   31  A    between atoms: _79  and  _81
REMARK   32  A    between atoms: _81  and  _82
REMARK   33  A    between atoms: _81  and  _84
REMARK   34  A    between atoms: _84  and  _85
REMARK   35  A    between atoms: _87  and  _89
REMARK   36  A    between atoms: _89  and  _90
REMARK   37  A    between atoms: _89  and  _92
REMARK   38  A    between atoms: _92  and  _93
REMARK   39  A    between atoms: _96  and  _98
REMARK   40  A    between atoms: _98  and  _99
REMARK   41  A    between atoms: _98  and  _101
REMARK   42  A    between atoms: _101  and  _102
REMARK   43  A    between atoms: _107  and  _108
REMARK   44  A    between atoms: _110  and  _112
REMARK   45  A    between atoms: _112  and  _113
REMARK   46  A    between atoms: _115  and  _117
REMARK   47  A    between atoms: _117  and  _118
REMARK   48  A    between atoms: _117  and  _120
REMARK   49  A    between atoms: _120  and  _121
REMARK   50  A    between atoms: _124  and  _126
REMARK   51  A    between atoms: _126  and  _127
REMARK   52  A    between atoms: _126  and  _129
REMARK   53  A    between atoms: _129  and  _130
REMARK   54  A    between atoms: _133  and  _135
REMARK   55  A    between atoms: _135  and  _136
REMARK   56  A    between atoms: _135  and  _138
REMARK   57  A    between atoms: _138  and  _139
REMARK   58  A    between atoms: _139  and  _140
REMARK   59  A    between atoms: _140  and  _141
REMARK   60  A    between atoms: _141  and  _142
REMARK   61  A    between atoms: _146  and  _148
REMARK   62  A    between atoms: _148  and  _149
REMARK   63  A    between atoms: _148  and  _151
REMARK   64  A    between atoms: _151  and  _152
REMARK   65  A    between atoms: _152  and  _153
REMARK   66  A    between atoms: _156  and  _158
REMARK   67  A    between atoms: _158  and  _159
REMARK   68  A    between atoms: _158  and  _161
REMARK   69  A    between atoms: _164  and  _166
REMARK   70  A    between atoms: _166  and  _167
REMARK   71  A    between atoms: _166  and  _169
REMARK   72  A    between atoms: _169  and  _170
REMARK   73  A    between atoms: _172  and  _174
REMARK   74  A    between atoms: _174  and  _175
REMARK   75  A    between atoms: _174  and  _177
REMARK   76  A    between atoms: _177  and  _178
REMARK   77  A    between atoms: _178  and  _179
REMARK   78  A    between atoms: _184  and  _186
REMARK   79  A    between atoms: _186  and  _187
REMARK   80  A    between atoms: _186  and  _189
REMARK   81  A    between atoms: _191  and  _193
REMARK   82  A    between atoms: _193  and  _194
REMARK   83  A    between atoms: _193  and  _196
REMARK   84  A    between atoms: _198  and  _200
REMARK   85  A    between atoms: _200  and  _201
REMARK   86  A    between atoms: _200  and  _203
REMARK   87  A    between atoms: _203  and  _204
REMARK   88  A    between atoms: _207  and  _209
REMARK   89  A    between atoms: _209  and  _210
REMARK   90  A    between atoms: _209  and  _212
REMARK   91  A    between atoms: _212  and  _213
REMARK   92  A    between atoms: _216  and  _218
REMARK   93  A    between atoms: _218  and  _219
REMARK   94  A    between atoms: _218  and  _221
REMARK   95  A    between atoms: _221  and  _222
REMARK   96  A    between atoms: _222  and  _223
REMARK   97  A    between atoms: _223  and  _224
REMARK   98  A    between atoms: _224  and  _225
REMARK   99  A    between atoms: _229  and  _231
REMARK  100  A    between atoms: _231  and  _232
REMARK  101  A    between atoms: _231  and  _234
REMARK  102  A    between atoms: _234  and  _235
REMARK  103  A    between atoms: _240  and  _242
REMARK  104  A    between atoms: _242  and  _243
REMARK  105  A    between atoms: _242  and  _245
REMARK  106  A    between atoms: _245  and  _246
REMARK  107  A    between atoms: _251  and  _252
REMARK  108  A    between atoms: _254  and  _256
REMARK  109  A    between atoms: _256  and  _257
REMARK  110  A    between atoms: _256  and  _259
REMARK  111  A    between atoms: _262  and  _264
REMARK  112  A    between atoms: _264  and  _265
REMARK  113  A    between atoms: _264  and  _267
REMARK  114  A    between atoms: _267  and  _268
REMARK  115  A    between atoms: _268  and  _269
REMARK  116  A    between atoms: _269  and  _270
REMARK  117  A    between atoms: _270  and  _271
REMARK  118  A    between atoms: _275  and  _277
REMARK  119  A    between atoms: _277  and  _278
REMARK  120  A    between atoms: _277  and  _280
REMARK  121  A    between atoms: _280  and  _281
REMARK  122  A    between atoms: _284  and  _286
REMARK  123  A    between atoms: _286  and  _287
REMARK  124  A    between atoms: _286  and  _289
REMARK  125  A    between atoms: _289  and  _290
REMARK  126  A    between atoms: _290  and  _291
REMARK  127  A    between atoms: _291  and  _292
REMARK  128  A    between atoms: _292  and  _293
REMARK                            x       y       z     vdW  Elec       q    Type
REMARK                         _______ _______ _______ _____ _____    ______ ____
ROOT
ATOM      1  O   HOH     1      25.020  41.089  35.167  0.00  0.00    +0.000 OA
ENDROOT
TORSDOF 0
REMARK  Name = ../refined-set-2016/4g0z/4g0z_pocket.pdb
REMARK  128 active torsions:
REMARK  status: ('A' for Active; 'I' for Inactive)
REMARK    1  A    between atoms: _1  and  _3
REMARK    2  A    between atoms: _3  and  _4
REMARK    3  A    between atoms: _3  and  _6
REMARK    4  A    between atoms: _6  and  _7
REMARK    5  A    between atoms: _10  and  _12
REMARK    6  A    between atoms: _12  and  _13
REMARK    7  A    between atoms: _12  and  _15
REMARK    8  A    between atoms: _15  and  _16
REMARK    9  A    between atoms: _19  and  _21
REMARK   10  A    between atoms: _21  and  _22
REMARK   11  A    between atoms: _21  and  _24
REMARK   12  A    between atoms: _27  and  _29
REMARK   13  A    between atoms: _29  and  _30
REMARK   14  A    between atoms: _29  and  _32
REMARK   15  A    between atoms: _32  and  _33
REMARK   16  A    between atoms: _37  and  _38
REMARK   17  A    between atoms: _43  and  _45
REMARK   18  A    between atoms: _45  and  _46
REMARK   19  A    between atoms: _45  and  _48
REMARK   20  A    between atoms: _48  and  _49
REMARK   21  A    between atoms: _52  and  _54
REMARK   22  A    between atoms: _54  and  _55
REMARK   23  A    between atoms: _54  and  _57
REMARK   24  A    between atoms: _57  and  _58
REMARK   25  A    between atoms: _63  and  _65
REMARK   26  A    between atoms: _65  and  _66
REMARK   27  A    between atoms: _65  and  _68
REMARK   28  A    between atoms: _68  and  _69
REMARK   29  A    between atoms: _74  and  _76
REMARK   30  A    between atoms: _76  and  _77
REMARK   31  A    between atoms: _79  and  _81
REMARK   32  A    between atoms: _81  and  _82
REMARK   33  A    between atoms: _81  and  _84
REMARK   34  A    between atoms: _84  and  _85
REMARK   35  A    between atoms: _87  and  _89
REMARK   36  A    between atoms: _89  and  _90
REMARK   37  A    between atoms: _89  and  _92
REMARK   38  A    between atoms: _92  and  _93
REMARK   39  A    between atoms: _96  and  _98
REMARK   40  A    between atoms: _98  and  _99
REMARK   41  A    between atoms: _98  and  _101
REMARK   42  A    between atoms: _101  and  _102
REMARK   43  A    between atoms: _107  and  _108
REMARK   44  A    between atoms: _110  and  _112
REMARK   45  A    between atoms: _112  and  _113
REMARK   46  A    between atoms: _115  and  _117
REMARK   47  A    between atoms: _117  and  _118
REMARK   48  A    between atoms: _117  and  _120
REMARK   49  A    between atoms: _120  and  _121
REMARK   50  A    between atoms: _124  and  _126
REMARK   51  A    between atoms: _126  and  _127
REMARK   52  A    between atoms: _126  and  _129
REMARK   53  A    between atoms: _129  and  _130
REMARK   54  A    between atoms: _133  and  _135
REMARK   55  A    between atoms: _135  and  _136
REMARK   56  A    between atoms: _135  and  _138
REMARK   57  A    between atoms: _138  and  _139
REMARK   58  A    between atoms: _139  and  _140
REMARK   59  A    between atoms: _140  and  _141
REMARK   60  A    between atoms: _141  and  _142
REMARK   61  A    between atoms: _146  and  _148
REMARK   62  A    between atoms: _148  and  _149
REMARK   63  A    between atoms: _148  and  _151
REMARK   64  A    between atoms: _151  and  _152
REMARK   65  A    between atoms: _152  and  _153
REMARK   66  A    between atoms: _156  and  _158
REMARK   67  A    between atoms: _158  and  _159
REMARK   68  A    between atoms: _158  and  _161
REMARK   69  A    between atoms: _164  and  _166
REMARK   70  A    between atoms: _166  and  _167
REMARK   71  A    between atoms: _166  and  _169
REMARK   72  A    between atoms: _169  and  _170
REMARK   73  A    between atoms: _172  and  _174
REMARK   74  A    between atoms: _174  and  _175
REMARK   75  A    between atoms: _174  and  _177
REMARK   76  A    between atoms: _177  and  _178
REMARK   77  A    between atoms: _178  and  _179
REMARK   78  A    between atoms: _184  and  _186
REMARK   79  A    between atoms: _186  and  _187
REMARK   80  A    between atoms: _186  and  _189
REMARK   81  A    between atoms: _191  and  _193
REMARK   82  A    between atoms: _193  and  _194
REMARK   83  A    between atoms: _193  and  _196
REMARK   84  A    between atoms: _198  and  _200
REMARK   85  A    between atoms: _200  and  _201
REMARK   86  A    between atoms: _200  and  _203
REMARK   87  A    between atoms: _203  and  _204
REMARK   88  A    between atoms: _207  and  _209
REMARK   89  A    between atoms: _209  and  _210
REMARK   90  A    between atoms: _209  and  _212
REMARK   91  A    between atoms: _212  and  _213
REMARK   92  A    between atoms: _216  and  _218
REMARK   93  A    between atoms: _218  and  _219
REMARK   94  A    between atoms: _218  and  _221
REMARK   95  A    between atoms: _221  and  _222
REMARK   96  A    between atoms: _222  and  _223
REMARK   97  A    between atoms: _223  and  _224
REMARK   98  A    between atoms: _224  and  _225
REMARK   99  A    between atoms: _229  and  _231
REMARK  100  A    between atoms: _231  and  _232
REMARK  101  A    between atoms: _231  and  _234
REMARK  102  A    between atoms: _234  and  _235
REMARK  103  A    between atoms: _240  and  _242
REMARK  104  A    between atoms: _242  and  _243
REMARK  105  A    between atoms: _242  and  _245
REMARK  106  A    between atoms: _245  and  _246
REMARK  107  A    between atoms: _251  and  _252
REMARK  108  A    between atoms: _254  and  _256
REMARK  109  A    between atoms: _256  and  _257
REMARK  110  A    between atoms: _256  and  _259
REMARK  111  A    between atoms: _262  and  _264
REMARK  112  A    between atoms: _264  and  _265
REMARK  113  A    between atoms: _264  and  _267
REMARK  114  A    between atoms: _267  and  _268
REMARK  115  A    between atoms: _268  and  _269
REMARK  116  A    between atoms: _269  and  _270
REMARK  117  A    between atoms: _270  and  _271
REMARK  118  A    between atoms: _275  and  _277
REMARK  119  A    between atoms: _277  and  _278
REMARK  120  A    between atoms: _277  and  _280
REMARK  121  A    between atoms: _280  and  _281
REMARK  122  A    between atoms: _284  and  _286
REMARK  123  A    between atoms: _286  and  _287
REMARK  124  A    between atoms: _286  and  _289
REMARK  125  A    between atoms: _289  and  _290
REMARK  126  A    between atoms: _290  and  _291
REMARK  127  A    between atoms: _291  and  _292
REMARK  128  A    between atoms: _292  and  _293
REMARK                            x       y       z     vdW  Elec       q    Type
REMARK                         _______ _______ _______ _____ _____    ______ ____
ROOT
ATOM      1  O   HOH     1      27.884  34.096  43.526  0.00  0.00    +0.000 OA
ENDROOT
TORSDOF 0
REMARK  Name = ../refined-set-2016/4g0z/4g0z_pocket.pdb
REMARK  128 active torsions:
REMARK  status: ('A' for Active; 'I' for Inactive)
REMARK    1  A    between atoms: _1  and  _3
REMARK    2  A    between atoms: _3  and  _4
REMARK    3  A    between atoms: _3  and  _6
REMARK    4  A    between atoms: _6  and  _7
REMARK    5  A    between atoms: _10  and  _12
REMARK    6  A    between atoms: _12  and  _13
REMARK    7  A    between atoms: _12  and  _15
REMARK    8  A    between atoms: _15  and  _16
REMARK    9  A    between atoms: _19  and  _21
REMARK   10  A    between atoms: _21  and  _22
REMARK   11  A    between atoms: _21  and  _24
REMARK   12  A    between atoms: _27  and  _29
REMARK   13  A    between atoms: _29  and  _30
REMARK   14  A    between atoms: _29  and  _32
REMARK   15  A    between atoms: _32  and  _33
REMARK   16  A    between atoms: _37  and  _38
REMARK   17  A    between atoms: _43  and  _45
REMARK   18  A    between atoms: _45  and  _46
REMARK   19  A    between atoms: _45  and  _48
REMARK   20  A    between atoms: _48  and  _49
REMARK   21  A    between atoms: _52  and  _54
REMARK   22  A    between atoms: _54  and  _55
REMARK   23  A    between atoms: _54  and  _57
REMARK   24  A    between atoms: _57  and  _58
REMARK   25  A    between atoms: _63  and  _65
REMARK   26  A    between atoms: _65  and  _66
REMARK   27  A    between atoms: _65  and  _68
REMARK   28  A    between atoms: _68  and  _69
REMARK   29  A    between atoms: _74  and  _76
REMARK   30  A    between atoms: _76  and  _77
REMARK   31  A    between atoms: _79  and  _81
REMARK   32  A    between atoms: _81  and  _82
REMARK   33  A    between atoms: _81  and  _84
REMARK   34  A    between atoms: _84  and  _85
REMARK   35  A    between atoms: _87  and  _89
REMARK   36  A    between atoms: _89  and  _90
REMARK   37  A    between atoms: _89  and  _92
REMARK   38  A    between atoms: _92  and  _93
REMARK   39  A    between atoms: _96  and  _98
REMARK   40  A    between atoms: _98  and  _99
REMARK   41  A    between atoms: _98  and  _101
REMARK   42  A    between atoms: _101  and  _102
REMARK   43  A    between atoms: _107  and  _108
REMARK   44  A    between atoms: _110  and  _112
REMARK   45  A    between atoms: _112  and  _113
REMARK   46  A    between atoms: _115  and  _117
REMARK   47  A    between atoms: _117  and  _118
REMARK   48  A    between atoms: _117  and  _120
REMARK   49  A    between atoms: _120  and  _121
REMARK   50  A    between atoms: _124  and  _126
REMARK   51  A    between atoms: _126  and  _127
REMARK   52  A    between atoms: _126  and  _129
REMARK   53  A    between atoms: _129  and  _130
REMARK   54  A    between atoms: _133  and  _135
REMARK   55  A    between atoms: _135  and  _136
REMARK   56  A    between atoms: _135  and  _138
REMARK   57  A    between atoms: _138  and  _139
REMARK   58  A    between atoms: _139  and  _140
REMARK   59  A    between atoms: _140  and  _141
REMARK   60  A    between atoms: _141  and  _142
REMARK   61  A    between atoms: _146  and  _148
REMARK   62  A    between atoms: _148  and  _149
REMARK   63  A    between atoms: _148  and  _151
REMARK   64  A    between atoms: _151  and  _152
REMARK   65  A    between atoms: _152  and  _153
REMARK   66  A    between atoms: _156  and  _158
REMARK   67  A    between atoms: _158  and  _159
REMARK   68  A    between atoms: _158  and  _161
REMARK   69  A    between atoms: _164  and  _166
REMARK   70  A    between atoms: _166  and  _167
REMARK   71  A    between atoms: _166  and  _169
REMARK   72  A    between atoms: _169  and  _170
REMARK   73  A    between atoms: _172  and  _174
REMARK   74  A    between atoms: _174  and  _175
REMARK   75  A    between atoms: _174  and  _177
REMARK   76  A    between atoms: _177  and  _178
REMARK   77  A    between atoms: _178  and  _179
REMARK   78  A    between atoms: _184  and  _186
REMARK   79  A    between atoms: _186  and  _187
REMARK   80  A    between atoms: _186  and  _189
REMARK   81  A    between atoms: _191  and  _193
REMARK   82  A    between atoms: _193  and  _194
REMARK   83  A    between atoms: _193  and  _196
REMARK   84  A    between atoms: _198  and  _200
REMARK   85  A    between atoms: _200  and  _201
REMARK   86  A    between atoms: _200  and  _203
REMARK   87  A    between atoms: _203  and  _204
REMARK   88  A    between atoms: _207  and  _209
REMARK   89  A    between atoms: _209  and  _210
REMARK   90  A    between atoms: _209  and  _212
REMARK   91  A    between atoms: _212  and  _213
REMARK   92  A    between atoms: _216  and  _218
REMARK   93  A    between atoms: _218  and  _219
REMARK   94  A    between atoms: _218  and  _221
REMARK   95  A    between atoms: _221  and  _222
REMARK   96  A    between atoms: _222  and  _223
REMARK   97  A    between atoms: _223  and  _224
REMARK   98  A    between atoms: _224  and  _225
REMARK   99  A    between atoms: _229  and  _231
REMARK  100  A    between atoms: _231  and  _232
REMARK  101  A    between atoms: _231  and  _234
REMARK  102  A    between atoms: _234  and  _235
REMARK  103  A    between atoms: _240  and  _242
REMARK  104  A    between atoms: _242  and  _243
REMARK  105  A    between atoms: _242  and  _245
REMARK  106  A    between atoms: _245  and  _246
REMARK  107  A    between atoms: _251  and  _252
REMARK  108  A    between atoms: _254  and  _256
REMARK  109  A    between atoms: _256  and  _257
REMARK  110  A    between atoms: _256  and  _259
REMARK  111  A    between atoms: _262  and  _264
REMARK  112  A    between atoms: _264  and  _265
REMARK  113  A    between atoms: _264  and  _267
REMARK  114  A    between atoms: _267  and  _268
REMARK  115  A    between atoms: _268  and  _269
REMARK  116  A    between atoms: _269  and  _270
REMARK  117  A    between atoms: _270  and  _271
REMARK  118  A    between atoms: _275  and  _277
REMARK  119  A    between atoms: _277  and  _278
REMARK  120  A    between atoms: _277  and  _280
REMARK  121  A    between atoms: _280  and  _281
REMARK  122  A    between atoms: _284  and  _286
REMARK  123  A    between atoms: _286  and  _287
REMARK  124  A    between atoms: _286  and  _289
REMARK  125  A    between atoms: _289  and  _290
REMARK  126  A    between atoms: _290  and  _291
REMARK  127  A    between atoms: _291  and  _292
REMARK  128  A    between atoms: _292  and  _293
REMARK                            x       y       z     vdW  Elec       q    Type
REMARK                         _______ _______ _______ _____ _____    ______ ____
ROOT
ATOM      1  O   HOH     1      29.251  31.688  43.857  0.00  0.00    +0.000 OA
ENDROOT
TORSDOF 0
REMARK  Name = ../refined-set-2016/4g0z/4g0z_pocket.pdb
REMARK  128 active torsions:
REMARK  status: ('A' for Active; 'I' for Inactive)
REMARK    1  A    between atoms: _1  and  _3
REMARK    2  A    between atoms: _3  and  _4
REMARK    3  A    between atoms: _3  and  _6
REMARK    4  A    between atoms: _6  and  _7
REMARK    5  A    between atoms: _10  and  _12
REMARK    6  A    between atoms: _12  and  _13
REMARK    7  A    between atoms: _12  and  _15
REMARK    8  A    between atoms: _15  and  _16
REMARK    9  A    between atoms: _19  and  _21
REMARK   10  A    between atoms: _21  and  _22
REMARK   11  A    between atoms: _21  and  _24
REMARK   12  A    between atoms: _27  and  _29
REMARK   13  A    between atoms: _29  and  _30
REMARK   14  A    between atoms: _29  and  _32
REMARK   15  A    between atoms: _32  and  _33
REMARK   16  A    between atoms: _37  and  _38
REMARK   17  A    between atoms: _43  and  _45
REMARK   18  A    between atoms: _45  and  _46
REMARK   19  A    between atoms: _45  and  _48
REMARK   20  A    between atoms: _48  and  _49
REMARK   21  A    between atoms: _52  and  _54
REMARK   22  A    between atoms: _54  and  _55
REMARK   23  A    between atoms: _54  and  _57
REMARK   24  A    between atoms: _57  and  _58
REMARK   25  A    between atoms: _63  and  _65
REMARK   26  A    between atoms: _65  and  _66
REMARK   27  A    between atoms: _65  and  _68
REMARK   28  A    between atoms: _68  and  _69
REMARK   29  A    between atoms: _74  and  _76
REMARK   30  A    between atoms: _76  and  _77
REMARK   31  A    between atoms: _79  and  _81
REMARK   32  A    between atoms: _81  and  _82
REMARK   33  A    between atoms: _81  and  _84
REMARK   34  A    between atoms: _84  and  _85
REMARK   35  A    between atoms: _87  and  _89
REMARK   36  A    between atoms: _89  and  _90
REMARK   37  A    between atoms: _89  and  _92
REMARK   38  A    between atoms: _92  and  _93
REMARK   39  A    between atoms: _96  and  _98
REMARK   40  A    between atoms: _98  and  _99
REMARK   41  A    between atoms: _98  and  _101
REMARK   42  A    between atoms: _101  and  _102
REMARK   43  A    between atoms: _107  and  _108
REMARK   44  A    between atoms: _110  and  _112
REMARK   45  A    between atoms: _112  and  _113
REMARK   46  A    between atoms: _115  and  _117
REMARK   47  A    between atoms: _117  and  _118
REMARK   48  A    between atoms: _117  and  _120
REMARK   49  A    between atoms: _120  and  _121
REMARK   50  A    between atoms: _124  and  _126
REMARK   51  A    between atoms: _126  and  _127
REMARK   52  A    between atoms: _126  and  _129
REMARK   53  A    between atoms: _129  and  _130
REMARK   54  A    between atoms: _133  and  _135
REMARK   55  A    between atoms: _135  and  _136
REMARK   56  A    between atoms: _135  and  _138
REMARK   57  A    between atoms: _138  and  _139
REMARK   58  A    between atoms: _139  and  _140
REMARK   59  A    between atoms: _140  and  _141
REMARK   60  A    between atoms: _141  and  _142
REMARK   61  A    between atoms: _146  and  _148
REMARK   62  A    between atoms: _148  and  _149
REMARK   63  A    between atoms: _148  and  _151
REMARK   64  A    between atoms: _151  and  _152
REMARK   65  A    between atoms: _152  and  _153
REMARK   66  A    between atoms: _156  and  _158
REMARK   67  A    between atoms: _158  and  _159
REMARK   68  A    between atoms: _158  and  _161
REMARK   69  A    between atoms: _164  and  _166
REMARK   70  A    between atoms: _166  and  _167
REMARK   71  A    between atoms: _166  and  _169
REMARK   72  A    between atoms: _169  and  _170
REMARK   73  A    between atoms: _172  and  _174
REMARK   74  A    between atoms: _174  and  _175
REMARK   75  A    between atoms: _174  and  _177
REMARK   76  A    between atoms: _177  and  _178
REMARK   77  A    between atoms: _178  and  _179
REMARK   78  A    between atoms: _184  and  _186
REMARK   79  A    between atoms: _186  and  _187
REMARK   80  A    between atoms: _186  and  _189
REMARK   81  A    between atoms: _191  and  _193
REMARK   82  A    between atoms: _193  and  _194
REMARK   83  A    between atoms: _193  and  _196
REMARK   84  A    between atoms: _198  and  _200
REMARK   85  A    between atoms: _200  and  _201
REMARK   86  A    between atoms: _200  and  _203
REMARK   87  A    between atoms: _203  and  _204
REMARK   88  A    between atoms: _207  and  _209
REMARK   89  A    between atoms: _209  and  _210
REMARK   90  A    between atoms: _209  and  _212
REMARK   91  A    between atoms: _212  and  _213
REMARK   92  A    between atoms: _216  and  _218
REMARK   93  A    between atoms: _218  and  _219
REMARK   94  A    between atoms: _218  and  _221
REMARK   95  A    between atoms: _221  and  _222
REMARK   96  A    between atoms: _222  and  _223
REMARK   97  A    between atoms: _223  and  _224
REMARK   98  A    between atoms: _224  and  _225
REMARK   99  A    between atoms: _229  and  _231
REMARK  100  A    between atoms: _231  and  _232
REMARK  101  A    between atoms: _231  and  _234
REMARK  102  A    between atoms: _234  and  _235
REMARK  103  A    between atoms: _240  and  _242
REMARK  104  A    between atoms: _242  and  _243
REMARK  105  A    between atoms: _242  and  _245
REMARK  106  A    between atoms: _245  and  _246
REMARK  107  A    between atoms: _251  and  _252
REMARK  108  A    between atoms: _254  and  _256
REMARK  109  A    between atoms: _256  and  _257
REMARK  110  A    between atoms: _256  and  _259
REMARK  111  A    between atoms: _262  and  _264
REMARK  112  A    between atoms: _264  and  _265
REMARK  113  A    between atoms: _264  and  _267
REMARK  114  A    between atoms: _267  and  _268
REMARK  115  A    between atoms: _268  and  _269
REMARK  116  A    between atoms: _269  and  _270
REMARK  117  A    between atoms: _270  and  _271
REMARK  118  A    between atoms: _275  and  _277
REMARK  119  A    between atoms: _277  and  _278
REMARK  120  A    between atoms: _277  and  _280
REMARK  121  A    between atoms: _280  and  _281
REMARK  122  A    between atoms: _284  and  _286
REMARK  123  A    between atoms: _286  and  _287
REMARK  124  A    between atoms: _286  and  _289
REMARK  125  A    between atoms: _289  and  _290
REMARK  126  A    between atoms: _290  and  _291
REMARK  127  A    between atoms: _291  and  _292
REMARK  128  A    between atoms: _292  and  _293
REMARK                            x       y       z     vdW  Elec       q    Type
REMARK                         _______ _______ _______ _____ _____    ______ ____
ROOT
ATOM      1  O   HOH     1      33.253  31.063  41.878  0.00  0.00    +0.000 OA
ENDROOT
TORSDOF 0
REMARK  Name = ../refined-set-2016/4g0z/4g0z_pocket.pdb
REMARK  128 active torsions:
REMARK  status: ('A' for Active; 'I' for Inactive)
REMARK    1  A    between atoms: _1  and  _3
REMARK    2  A    between atoms: _3  and  _4
REMARK    3  A    between atoms: _3  and  _6
REMARK    4  A    between atoms: _6  and  _7
REMARK    5  A    between atoms: _10  and  _12
REMARK    6  A    between atoms: _12  and  _13
REMARK    7  A    between atoms: _12  and  _15
REMARK    8  A    between atoms: _15  and  _16
REMARK    9  A    between atoms: _19  and  _21
REMARK   10  A    between atoms: _21  and  _22
REMARK   11  A    between atoms: _21  and  _24
REMARK   12  A    between atoms: _27  and  _29
REMARK   13  A    between atoms: _29  and  _30
REMARK   14  A    between atoms: _29  and  _32
REMARK   15  A    between atoms: _32  and  _33
REMARK   16  A    between atoms: _37  and  _38
REMARK   17  A    between atoms: _43  and  _45
REMARK   18  A    between atoms: _45  and  _46
REMARK   19  A    between atoms: _45  and  _48
REMARK   20  A    between atoms: _48  and  _49
REMARK   21  A    between atoms: _52  and  _54
REMARK   22  A    between atoms: _54  and  _55
REMARK   23  A    between atoms: _54  and  _57
REMARK   24  A    between atoms: _57  and  _58
REMARK   25  A    between atoms: _63  and  _65
REMARK   26  A    between atoms: _65  and  _66
REMARK   27  A    between atoms: _65  and  _68
REMARK   28  A    between atoms: _68  and  _69
REMARK   29  A    between atoms: _74  and  _76
REMARK   30  A    between atoms: _76  and  _77
REMARK   31  A    between atoms: _79  and  _81
REMARK   32  A    between atoms: _81  and  _82
REMARK   33  A    between atoms: _81  and  _84
REMARK   34  A    between atoms: _84  and  _85
REMARK   35  A    between atoms: _87  and  _89
REMARK   36  A    between atoms: _89  and  _90
REMARK   37  A    between atoms: _89  and  _92
REMARK   38  A    between atoms: _92  and  _93
REMARK   39  A    between atoms: _96  and  _98
REMARK   40  A    between atoms: _98  and  _99
REMARK   41  A    between atoms: _98  and  _101
REMARK   42  A    between atoms: _101  and  _102
REMARK   43  A    between atoms: _107  and  _108
REMARK   44  A    between atoms: _110  and  _112
REMARK   45  A    between atoms: _112  and  _113
REMARK   46  A    between atoms: _115  and  _117
REMARK   47  A    between atoms: _117  and  _118
REMARK   48  A    between atoms: _117  and  _120
REMARK   49  A    between atoms: _120  and  _121
REMARK   50  A    between atoms: _124  and  _126
REMARK   51  A    between atoms: _126  and  _127
REMARK   52  A    between atoms: _126  and  _129
REMARK   53  A    between atoms: _129  and  _130
REMARK   54  A    between atoms: _133  and  _135
REMARK   55  A    between atoms: _135  and  _136
REMARK   56  A    between atoms: _135  and  _138
REMARK   57  A    between atoms: _138  and  _139
REMARK   58  A    between atoms: _139  and  _140
REMARK   59  A    between atoms: _140  and  _141
REMARK   60  A    between atoms: _141  and  _142
REMARK   61  A    between atoms: _146  and  _148
REMARK   62  A    between atoms: _148  and  _149
REMARK   63  A    between atoms: _148  and  _151
REMARK   64  A    between atoms: _151  and  _152
REMARK   65  A    between atoms: _152  and  _153
REMARK   66  A    between atoms: _156  and  _158
REMARK   67  A    between atoms: _158  and  _159
REMARK   68  A    between atoms: _158  and  _161
REMARK   69  A    between atoms: _164  and  _166
REMARK   70  A    between atoms: _166  and  _167
REMARK   71  A    between atoms: _166  and  _169
REMARK   72  A    between atoms: _169  and  _170
REMARK   73  A    between atoms: _172  and  _174
REMARK   74  A    between atoms: _174  and  _175
REMARK   75  A    between atoms: _174  and  _177
REMARK   76  A    between atoms: _177  and  _178
REMARK   77  A    between atoms: _178  and  _179
REMARK   78  A    between atoms: _184  and  _186
REMARK   79  A    between atoms: _186  and  _187
REMARK   80  A    between atoms: _186  and  _189
REMARK   81  A    between atoms: _191  and  _193
REMARK   82  A    between atoms: _193  and  _194
REMARK   83  A    between atoms: _193  and  _196
REMARK   84  A    between atoms: _198  and  _200
REMARK   85  A    between atoms: _200  and  _201
REMARK   86  A    between atoms: _200  and  _203
REMARK   87  A    between atoms: _203  and  _204
REMARK   88  A    between atoms: _207  and  _209
REMARK   89  A    between atoms: _209  and  _210
REMARK   90  A    between atoms: _209  and  _212
REMARK   91  A    between atoms: _212  and  _213
REMARK   92  A    between atoms: _216  and  _218
REMARK   93  A    between atoms: _218  and  _219
REMARK   94  A    between atoms: _218  and  _221
REMARK   95  A    between atoms: _221  and  _222
REMARK   96  A    between atoms: _222  and  _223
REMARK   97  A    between atoms: _223  and  _224
REMARK   98  A    between atoms: _224  and  _225
REMARK   99  A    between atoms: _229  and  _231
REMARK  100  A    between atoms: _231  and  _232
REMARK  101  A    between atoms: _231  and  _234
REMARK  102  A    between atoms: _234  and  _235
REMARK  103  A    between atoms: _240  and  _242
REMARK  104  A    between atoms: _242  and  _243
REMARK  105  A    between atoms: _242  and  _245
REMARK  106  A    between atoms: _245  and  _246
REMARK  107  A    between atoms: _251  and  _252
REMARK  108  A    between atoms: _254  and  _256
REMARK  109  A    between atoms: _256  and  _257
REMARK  110  A    between atoms: _256  and  _259
REMARK  111  A    between atoms: _262  and  _264
REMARK  112  A    between atoms: _264  and  _265
REMARK  113  A    between atoms: _264  and  _267
REMARK  114  A    between atoms: _267  and  _268
REMARK  115  A    between atoms: _268  and  _269
REMARK  116  A    between atoms: _269  and  _270
REMARK  117  A    between atoms: _270  and  _271
REMARK  118  A    between atoms: _275  and  _277
REMARK  119  A    between atoms: _277  and  _278
REMARK  120  A    between atoms: _277  and  _280
REMARK  121  A    between atoms: _280  and  _281
REMARK  122  A    between atoms: _284  and  _286
REMARK  123  A    between atoms: _286  and  _287
REMARK  124  A    between atoms: _286  and  _289
REMARK  125  A    between atoms: _289  and  _290
REMARK  126  A    between atoms: _290  and  _291
REMARK  127  A    between atoms: _291  and  _292
REMARK  128  A    between atoms: _292  and  _293
REMARK                            x       y       z     vdW  Elec       q    Type
REMARK                         _______ _______ _______ _____ _____    ______ ____
ROOT
ATOM      1  O   HOH     1      25.041  36.523  35.275  0.00  0.00    +0.000 OA
ENDROOT
TORSDOF 0
REMARK  Name = ../refined-set-2016/4g0z/4g0z_pocket.pdb
REMARK  128 active torsions:
REMARK  status: ('A' for Active; 'I' for Inactive)
REMARK    1  A    between atoms: _1  and  _3
REMARK    2  A    between atoms: _3  and  _4
REMARK    3  A    between atoms: _3  and  _6
REMARK    4  A    between atoms: _6  and  _7
REMARK    5  A    between atoms: _10  and  _12
REMARK    6  A    between atoms: _12  and  _13
REMARK    7  A    between atoms: _12  and  _15
REMARK    8  A    between atoms: _15  and  _16
REMARK    9  A    between atoms: _19  and  _21
REMARK   10  A    between atoms: _21  and  _22
REMARK   11  A    between atoms: _21  and  _24
REMARK   12  A    between atoms: _27  and  _29
REMARK   13  A    between atoms: _29  and  _30
REMARK   14  A    between atoms: _29  and  _32
REMARK   15  A    between atoms: _32  and  _33
REMARK   16  A    between atoms: _37  and  _38
REMARK   17  A    between atoms: _43  and  _45
REMARK   18  A    between atoms: _45  and  _46
REMARK   19  A    between atoms: _45  and  _48
REMARK   20  A    between atoms: _48  and  _49
REMARK   21  A    between atoms: _52  and  _54
REMARK   22  A    between atoms: _54  and  _55
REMARK   23  A    between atoms: _54  and  _57
REMARK   24  A    between atoms: _57  and  _58
REMARK   25  A    between atoms: _63  and  _65
REMARK   26  A    between atoms: _65  and  _66
REMARK   27  A    between atoms: _65  and  _68
REMARK   28  A    between atoms: _68  and  _69
REMARK   29  A    between atoms: _74  and  _76
REMARK   30  A    between atoms: _76  and  _77
REMARK   31  A    between atoms: _79  and  _81
REMARK   32  A    between atoms: _81  and  _82
REMARK   33  A    between atoms: _81  and  _84
REMARK   34  A    between atoms: _84  and  _85
REMARK   35  A    between atoms: _87  and  _89
REMARK   36  A    between atoms: _89  and  _90
REMARK   37  A    between atoms: _89  and  _92
REMARK   38  A    between atoms: _92  and  _93
REMARK   39  A    between atoms: _96  and  _98
REMARK   40  A    between atoms: _98  and  _99
REMARK   41  A    between atoms: _98  and  _101
REMARK   42  A    between atoms: _101  and  _102
REMARK   43  A    between atoms: _107  and  _108
REMARK   44  A    between atoms: _110  and  _112
REMARK   45  A    between atoms: _112  and  _113
REMARK   46  A    between atoms: _115  and  _117
REMARK   47  A    between atoms: _117  and  _118
REMARK   48  A    between atoms: _117  and  _120
REMARK   49  A    between atoms: _120  and  _121
REMARK   50  A    between atoms: _124  and  _126
REMARK   51  A    between atoms: _126  and  _127
REMARK   52  A    between atoms: _126  and  _129
REMARK   53  A    between atoms: _129  and  _130
REMARK   54  A    between atoms: _133  and  _135
REMARK   55  A    between atoms: _135  and  _136
REMARK   56  A    between atoms: _135  and  _138
REMARK   57  A    between atoms: _138  and  _139
REMARK   58  A    between atoms: _139  and  _140
REMARK   59  A    between atoms: _140  and  _141
REMARK   60  A    between atoms: _141  and  _142
REMARK   61  A    between atoms: _146  and  _148
REMARK   62  A    between atoms: _148  and  _149
REMARK   63  A    between atoms: _148  and  _151
REMARK   64  A    between atoms: _151  and  _152
REMARK   65  A    between atoms: _152  and  _153
REMARK   66  A    between atoms: _156  and  _158
REMARK   67  A    between atoms: _158  and  _159
REMARK   68  A    between atoms: _158  and  _161
REMARK   69  A    between atoms: _164  and  _166
REMARK   70  A    between atoms: _166  and  _167
REMARK   71  A    between atoms: _166  and  _169
REMARK   72  A    between atoms: _169  and  _170
REMARK   73  A    between atoms: _172  and  _174
REMARK   74  A    between atoms: _174  and  _175
REMARK   75  A    between atoms: _174  and  _177
REMARK   76  A    between atoms: _177  and  _178
REMARK   77  A    between atoms: _178  and  _179
REMARK   78  A    between atoms: _184  and  _186
REMARK   79  A    between atoms: _186  and  _187
REMARK   80  A    between atoms: _186  and  _189
REMARK   81  A    between atoms: _191  and  _193
REMARK   82  A    between atoms: _193  and  _194
REMARK   83  A    between atoms: _193  and  _196
REMARK   84  A    between atoms: _198  and  _200
REMARK   85  A    between atoms: _200  and  _201
REMARK   86  A    between atoms: _200  and  _203
REMARK   87  A    between atoms: _203  and  _204
REMARK   88  A    between atoms: _207  and  _209
REMARK   89  A    between atoms: _209  and  _210
REMARK   90  A    between atoms: _209  and  _212
REMARK   91  A    between atoms: _212  and  _213
REMARK   92  A    between atoms: _216  and  _218
REMARK   93  A    between atoms: _218  and  _219
REMARK   94  A    between atoms: _218  and  _221
REMARK   95  A    between atoms: _221  and  _222
REMARK   96  A    between atoms: _222  and  _223
REMARK   97  A    between atoms: _223  and  _224
REMARK   98  A    between atoms: _224  and  _225
REMARK   99  A    between atoms: _229  and  _231
REMARK  100  A    between atoms: _231  and  _232
REMARK  101  A    between atoms: _231  and  _234
REMARK  102  A    between atoms: _234  and  _235
REMARK  103  A    between atoms: _240  and  _242
REMARK  104  A    between atoms: _242  and  _243
REMARK  105  A    between atoms: _242  and  _245
REMARK  106  A    between atoms: _245  and  _246
REMARK  107  A    between atoms: _251  and  _252
REMARK  108  A    between atoms: _254  and  _256
REMARK  109  A    between atoms: _256  and  _257
REMARK  110  A    between atoms: _256  and  _259
REMARK  111  A    between atoms: _262  and  _264
REMARK  112  A    between atoms: _264  and  _265
REMARK  113  A    between atoms: _264  and  _267
REMARK  114  A    between atoms: _267  and  _268
REMARK  115  A    between atoms: _268  and  _269
REMARK  116  A    between atoms: _269  and  _270
REMARK  117  A    between atoms: _270  and  _271
REMARK  118  A    between atoms: _275  and  _277
REMARK  119  A    between atoms: _277  and  _278
REMARK  120  A    between atoms: _277  and  _280
REMARK  121  A    between atoms: _280  and  _281
REMARK  122  A    between atoms: _284  and  _286
REMARK  123  A    between atoms: _286  and  _287
REMARK  124  A    between atoms: _286  and  _289
REMARK  125  A    between atoms: _289  and  _290
REMARK  126  A    between atoms: _290  and  _291
REMARK  127  A    between atoms: _291  and  _292
REMARK  128  A    between atoms: _292  and  _293
REMARK                            x       y       z     vdW  Elec       q    Type
REMARK                         _______ _______ _______ _____ _____    ______ ____
ROOT
ATOM      1  O   HOH     1      20.208  36.393  33.493  0.00  0.00    +0.000 OA
ENDROOT
TORSDOF 0
REMARK  Name = ../refined-set-2016/4g0z/4g0z_pocket.pdb
REMARK  128 active torsions:
REMARK  status: ('A' for Active; 'I' for Inactive)
REMARK    1  A    between atoms: _1  and  _3
REMARK    2  A    between atoms: _3  and  _4
REMARK    3  A    between atoms: _3  and  _6
REMARK    4  A    between atoms: _6  and  _7
REMARK    5  A    between atoms: _10  and  _12
REMARK    6  A    between atoms: _12  and  _13
REMARK    7  A    between atoms: _12  and  _15
REMARK    8  A    between atoms: _15  and  _16
REMARK    9  A    between atoms: _19  and  _21
REMARK   10  A    between atoms: _21  and  _22
REMARK   11  A    between atoms: _21  and  _24
REMARK   12  A    between atoms: _27  and  _29
REMARK   13  A    between atoms: _29  and  _30
REMARK   14  A    between atoms: _29  and  _32
REMARK   15  A    between atoms: _32  and  _33
REMARK   16  A    between atoms: _37  and  _38
REMARK   17  A    between atoms: _43  and  _45
REMARK   18  A    between atoms: _45  and  _46
REMARK   19  A    between atoms: _45  and  _48
REMARK   20  A    between atoms: _48  and  _49
REMARK   21  A    between atoms: _52  and  _54
REMARK   22  A    between atoms: _54  and  _55
REMARK   23  A    between atoms: _54  and  _57
REMARK   24  A    between atoms: _57  and  _58
REMARK   25  A    between atoms: _63  and  _65
REMARK   26  A    between atoms: _65  and  _66
REMARK   27  A    between atoms: _65  and  _68
REMARK   28  A    between atoms: _68  and  _69
REMARK   29  A    between atoms: _74  and  _76
REMARK   30  A    between atoms: _76  and  _77
REMARK   31  A    between atoms: _79  and  _81
REMARK   32  A    between atoms: _81  and  _82
REMARK   33  A    between atoms: _81  and  _84
REMARK   34  A    between atoms: _84  and  _85
REMARK   35  A    between atoms: _87  and  _89
REMARK   36  A    between atoms: _89  and  _90
REMARK   37  A    between atoms: _89  and  _92
REMARK   38  A    between atoms: _92  and  _93
REMARK   39  A    between atoms: _96  and  _98
REMARK   40  A    between atoms: _98  and  _99
REMARK   41  A    between atoms: _98  and  _101
REMARK   42  A    between atoms: _101  and  _102
REMARK   43  A    between atoms: _107  and  _108
REMARK   44  A    between atoms: _110  and  _112
REMARK   45  A    between atoms: _112  and  _113
REMARK   46  A    between atoms: _115  and  _117
REMARK   47  A    between atoms: _117  and  _118
REMARK   48  A    between atoms: _117  and  _120
REMARK   49  A    between atoms: _120  and  _121
REMARK   50  A    between atoms: _124  and  _126
REMARK   51  A    between atoms: _126  and  _127
REMARK   52  A    between atoms: _126  and  _129
REMARK   53  A    between atoms: _129  and  _130
REMARK   54  A    between atoms: _133  and  _135
REMARK   55  A    between atoms: _135  and  _136
REMARK   56  A    between atoms: _135  and  _138
REMARK   57  A    between atoms: _138  and  _139
REMARK   58  A    between atoms: _139  and  _140
REMARK   59  A    between atoms: _140  and  _141
REMARK   60  A    between atoms: _141  and  _142
REMARK   61  A    between atoms: _146  and  _148
REMARK   62  A    between atoms: _148  and  _149
REMARK   63  A    between atoms: _148  and  _151
REMARK   64  A    between atoms: _151  and  _152
REMARK   65  A    between atoms: _152  and  _153
REMARK   66  A    between atoms: _156  and  _158
REMARK   67  A    between atoms: _158  and  _159
REMARK   68  A    between atoms: _158  and  _161
REMARK   69  A    between atoms: _164  and  _166
REMARK   70  A    between atoms: _166  and  _167
REMARK   71  A    between atoms: _166  and  _169
REMARK   72  A    between atoms: _169  and  _170
REMARK   73  A    between atoms: _172  and  _174
REMARK   74  A    between atoms: _174  and  _175
REMARK   75  A    between atoms: _174  and  _177
REMARK   76  A    between atoms: _177  and  _178
REMARK   77  A    between atoms: _178  and  _179
REMARK   78  A    between atoms: _184  and  _186
REMARK   79  A    between atoms: _186  and  _187
REMARK   80  A    between atoms: _186  and  _189
REMARK   81  A    between atoms: _191  and  _193
REMARK   82  A    between atoms: _193  and  _194
REMARK   83  A    between atoms: _193  and  _196
REMARK   84  A    between atoms: _198  and  _200
REMARK   85  A    between atoms: _200  and  _201
REMARK   86  A    between atoms: _200  and  _203
REMARK   87  A    between atoms: _203  and  _204
REMARK   88  A    between atoms: _207  and  _209
REMARK   89  A    between atoms: _209  and  _210
REMARK   90  A    between atoms: _209  and  _212
REMARK   91  A    between atoms: _212  and  _213
REMARK   92  A    between atoms: _216  and  _218
REMARK   93  A    between atoms: _218  and  _219
REMARK   94  A    between atoms: _218  and  _221
REMARK   95  A    between atoms: _221  and  _222
REMARK   96  A    between atoms: _222  and  _223
REMARK   97  A    between atoms: _223  and  _224
REMARK   98  A    between atoms: _224  and  _225
REMARK   99  A    between atoms: _229  and  _231
REMARK  100  A    between atoms: _231  and  _232
REMARK  101  A    between atoms: _231  and  _234
REMARK  102  A    between atoms: _234  and  _235
REMARK  103  A    between atoms: _240  and  _242
REMARK  104  A    between atoms: _242  and  _243
REMARK  105  A    between atoms: _242  and  _245
REMARK  106  A    between atoms: _245  and  _246
REMARK  107  A    between atoms: _251  and  _252
REMARK  108  A    between atoms: _254  and  _256
REMARK  109  A    between atoms: _256  and  _257
REMARK  110  A    between atoms: _256  and  _259
REMARK  111  A    between atoms: _262  and  _264
REMARK  112  A    between atoms: _264  and  _265
REMARK  113  A    between atoms: _264  and  _267
REMARK  114  A    between atoms: _267  and  _268
REMARK  115  A    between atoms: _268  and  _269
REMARK  116  A    between atoms: _269  and  _270
REMARK  117  A    between atoms: _270  and  _271
REMARK  118  A    between atoms: _275  and  _277
REMARK  119  A    between atoms: _277  and  _278
REMARK  120  A    between atoms: _277  and  _280
REMARK  121  A    between atoms: _280  and  _281
REMARK  122  A    between atoms: _284  and  _286
REMARK  123  A    between atoms: _286  and  _287
REMARK  124  A    between atoms: _286  and  _289
REMARK  125  A    between atoms: _289  and  _290
REMARK  126  A    between atoms: _290  and  _291
REMARK  127  A    between atoms: _291  and  _292
REMARK  128  A    between atoms: _292  and  _293
REMARK                            x       y       z     vdW  Elec       q    Type
REMARK                         _______ _______ _______ _____ _____    ______ ____
ROOT
ATOM      1  O   HOH     1      22.153  36.398  35.261  0.00  0.00    +0.000 OA
ENDROOT
TORSDOF 0
REMARK  Name = ../refined-set-2016/4g0z/4g0z_pocket.pdb
REMARK  128 active torsions:
REMARK  status: ('A' for Active; 'I' for Inactive)
REMARK    1  A    between atoms: _1  and  _3
REMARK    2  A    between atoms: _3  and  _4
REMARK    3  A    between atoms: _3  and  _6
REMARK    4  A    between atoms: _6  and  _7
REMARK    5  A    between atoms: _10  and  _12
REMARK    6  A    between atoms: _12  and  _13
REMARK    7  A    between atoms: _12  and  _15
REMARK    8  A    between atoms: _15  and  _16
REMARK    9  A    between atoms: _19  and  _21
REMARK   10  A    between atoms: _21  and  _22
REMARK   11  A    between atoms: _21  and  _24
REMARK   12  A    between atoms: _27  and  _29
REMARK   13  A    between atoms: _29  and  _30
REMARK   14  A    between atoms: _29  and  _32
REMARK   15  A    between atoms: _32  and  _33
REMARK   16  A    between atoms: _37  and  _38
REMARK   17  A    between atoms: _43  and  _45
REMARK   18  A    between atoms: _45  and  _46
REMARK   19  A    between atoms: _45  and  _48
REMARK   20  A    between atoms: _48  and  _49
REMARK   21  A    between atoms: _52  and  _54
REMARK   22  A    between atoms: _54  and  _55
REMARK   23  A    between atoms: _54  and  _57
REMARK   24  A    between atoms: _57  and  _58
REMARK   25  A    between atoms: _63  and  _65
REMARK   26  A    between atoms: _65  and  _66
REMARK   27  A    between atoms: _65  and  _68
REMARK   28  A    between atoms: _68  and  _69
REMARK   29  A    between atoms: _74  and  _76
REMARK   30  A    between atoms: _76  and  _77
REMARK   31  A    between atoms: _79  and  _81
REMARK   32  A    between atoms: _81  and  _82
REMARK   33  A    between atoms: _81  and  _84
REMARK   34  A    between atoms: _84  and  _85
REMARK   35  A    between atoms: _87  and  _89
REMARK   36  A    between atoms: _89  and  _90
REMARK   37  A    between atoms: _89  and  _92
REMARK   38  A    between atoms: _92  and  _93
REMARK   39  A    between atoms: _96  and  _98
REMARK   40  A    between atoms: _98  and  _99
REMARK   41  A    between atoms: _98  and  _101
REMARK   42  A    between atoms: _101  and  _102
REMARK   43  A    between atoms: _107  and  _108
REMARK   44  A    between atoms: _110  and  _112
REMARK   45  A    between atoms: _112  and  _113
REMARK   46  A    between atoms: _115  and  _117
REMARK   47  A    between atoms: _117  and  _118
REMARK   48  A    between atoms: _117  and  _120
REMARK   49  A    between atoms: _120  and  _121
REMARK   50  A    between atoms: _124  and  _126
REMARK   51  A    between atoms: _126  and  _127
REMARK   52  A    between atoms: _126  and  _129
REMARK   53  A    between atoms: _129  and  _130
REMARK   54  A    between atoms: _133  and  _135
REMARK   55  A    between atoms: _135  and  _136
REMARK   56  A    between atoms: _135  and  _138
REMARK   57  A    between atoms: _138  and  _139
REMARK   58  A    between atoms: _139  and  _140
REMARK   59  A    between atoms: _140  and  _141
REMARK   60  A    between atoms: _141  and  _142
REMARK   61  A    between atoms: _146  and  _148
REMARK   62  A    between atoms: _148  and  _149
REMARK   63  A    between atoms: _148  and  _151
REMARK   64  A    between atoms: _151  and  _152
REMARK   65  A    between atoms: _152  and  _153
REMARK   66  A    between atoms: _156  and  _158
REMARK   67  A    between atoms: _158  and  _159
REMARK   68  A    between atoms: _158  and  _161
REMARK   69  A    between atoms: _164  and  _166
REMARK   70  A    between atoms: _166  and  _167
REMARK   71  A    between atoms: _166  and  _169
REMARK   72  A    between atoms: _169  and  _170
REMARK   73  A    between atoms: _172  and  _174
REMARK   74  A    between atoms: _174  and  _175
REMARK   75  A    between atoms: _174  and  _177
REMARK   76  A    between atoms: _177  and  _178
REMARK   77  A    between atoms: _178  and  _179
REMARK   78  A    between atoms: _184  and  _186
REMARK   79  A    between atoms: _186  and  _187
REMARK   80  A    between atoms: _186  and  _189
REMARK   81  A    between atoms: _191  and  _193
REMARK   82  A    between atoms: _193  and  _194
REMARK   83  A    between atoms: _193  and  _196
REMARK   84  A    between atoms: _198  and  _200
REMARK   85  A    between atoms: _200  and  _201
REMARK   86  A    between atoms: _200  and  _203
REMARK   87  A    between atoms: _203  and  _204
REMARK   88  A    between atoms: _207  and  _209
REMARK   89  A    between atoms: _209  and  _210
REMARK   90  A    between atoms: _209  and  _212
REMARK   91  A    between atoms: _212  and  _213
REMARK   92  A    between atoms: _216  and  _218
REMARK   93  A    between atoms: _218  and  _219
REMARK   94  A    between atoms: _218  and  _221
REMARK   95  A    between atoms: _221  and  _222
REMARK   96  A    between atoms: _222  and  _223
REMARK   97  A    between atoms: _223  and  _224
REMARK   98  A    between atoms: _224  and  _225
REMARK   99  A    between atoms: _229  and  _231
REMARK  100  A    between atoms: _231  and  _232
REMARK  101  A    between atoms: _231  and  _234
REMARK  102  A    between atoms: _234  and  _235
REMARK  103  A    between atoms: _240  and  _242
REMARK  104  A    between atoms: _242  and  _243
REMARK  105  A    between atoms: _242  and  _245
REMARK  106  A    between atoms: _245  and  _246
REMARK  107  A    between atoms: _251  and  _252
REMARK  108  A    between atoms: _254  and  _256
REMARK  109  A    between atoms: _256  and  _257
REMARK  110  A    between atoms: _256  and  _259
REMARK  111  A    between atoms: _262  and  _264
REMARK  112  A    between atoms: _264  and  _265
REMARK  113  A    between atoms: _264  and  _267
REMARK  114  A    between atoms: _267  and  _268
REMARK  115  A    between atoms: _268  and  _269
REMARK  116  A    between atoms: _269  and  _270
REMARK  117  A    between atoms: _270  and  _271
REMARK  118  A    between atoms: _275  and  _277
REMARK  119  A    between atoms: _277  and  _278
REMARK  120  A    between atoms: _277  and  _280
REMARK  121  A    between atoms: _280  and  _281
REMARK  122  A    between atoms: _284  and  _286
REMARK  123  A    between atoms: _286  and  _287
REMARK  124  A    between atoms: _286  and  _289
REMARK  125  A    between atoms: _289  and  _290
REMARK  126  A    between atoms: _290  and  _291
REMARK  127  A    between atoms: _291  and  _292
REMARK  128  A    between atoms: _292  and  _293
REMARK                            x       y       z     vdW  Elec       q    Type
REMARK                         _______ _______ _______ _____ _____    ______ ____
ROOT
ATOM      1  O   HOH     1      19.933  37.934  36.221  0.00  0.00    +0.000 OA
ENDROOT
TORSDOF 0
REMARK  Name = ../refined-set-2016/4g0z/4g0z_pocket.pdb
REMARK  128 active torsions:
REMARK  status: ('A' for Active; 'I' for Inactive)
REMARK    1  A    between atoms: _1  and  _3
REMARK    2  A    between atoms: _3  and  _4
REMARK    3  A    between atoms: _3  and  _6
REMARK    4  A    between atoms: _6  and  _7
REMARK    5  A    between atoms: _10  and  _12
REMARK    6  A    between atoms: _12  and  _13
REMARK    7  A    between atoms: _12  and  _15
REMARK    8  A    between atoms: _15  and  _16
REMARK    9  A    between atoms: _19  and  _21
REMARK   10  A    between atoms: _21  and  _22
REMARK   11  A    between atoms: _21  and  _24
REMARK   12  A    between atoms: _27  and  _29
REMARK   13  A    between atoms: _29  and  _30
REMARK   14  A    between atoms: _29  and  _32
REMARK   15  A    between atoms: _32  and  _33
REMARK   16  A    between atoms: _37  and  _38
REMARK   17  A    between atoms: _43  and  _45
REMARK   18  A    between atoms: _45  and  _46
REMARK   19  A    between atoms: _45  and  _48
REMARK   20  A    between atoms: _48  and  _49
REMARK   21  A    between atoms: _52  and  _54
REMARK   22  A    between atoms: _54  and  _55
REMARK   23  A    between atoms: _54  and  _57
REMARK   24  A    between atoms: _57  and  _58
REMARK   25  A    between atoms: _63  and  _65
REMARK   26  A    between atoms: _65  and  _66
REMARK   27  A    between atoms: _65  and  _68
REMARK   28  A    between atoms: _68  and  _69
REMARK   29  A    between atoms: _74  and  _76
REMARK   30  A    between atoms: _76  and  _77
REMARK   31  A    between atoms: _79  and  _81
REMARK   32  A    between atoms: _81  and  _82
REMARK   33  A    between atoms: _81  and  _84
REMARK   34  A    between atoms: _84  and  _85
REMARK   35  A    between atoms: _87  and  _89
REMARK   36  A    between atoms: _89  and  _90
REMARK   37  A    between atoms: _89  and  _92
REMARK   38  A    between atoms: _92  and  _93
REMARK   39  A    between atoms: _96  and  _98
REMARK   40  A    between atoms: _98  and  _99
REMARK   41  A    between atoms: _98  and  _101
REMARK   42  A    between atoms: _101  and  _102
REMARK   43  A    between atoms: _107  and  _108
REMARK   44  A    between atoms: _110  and  _112
REMARK   45  A    between atoms: _112  and  _113
REMARK   46  A    between atoms: _115  and  _117
REMARK   47  A    between atoms: _117  and  _118
REMARK   48  A    between atoms: _117  and  _120
REMARK   49  A    between atoms: _120  and  _121
REMARK   50  A    between atoms: _124  and  _126
REMARK   51  A    between atoms: _126  and  _127
REMARK   52  A    between atoms: _126  and  _129
REMARK   53  A    between atoms: _129  and  _130
REMARK   54  A    between atoms: _133  and  _135
REMARK   55  A    between atoms: _135  and  _136
REMARK   56  A    between atoms: _135  and  _138
REMARK   57  A    between atoms: _138  and  _139
REMARK   58  A    between atoms: _139  and  _140
REMARK   59  A    between atoms: _140  and  _141
REMARK   60  A    between atoms: _141  and  _142
REMARK   61  A    between atoms: _146  and  _148
REMARK   62  A    between atoms: _148  and  _149
REMARK   63  A    between atoms: _148  and  _151
REMARK   64  A    between atoms: _151  and  _152
REMARK   65  A    between atoms: _152  and  _153
REMARK   66  A    between atoms: _156  and  _158
REMARK   67  A    between atoms: _158  and  _159
REMARK   68  A    between atoms: _158  and  _161
REMARK   69  A    between atoms: _164  and  _166
REMARK   70  A    between atoms: _166  and  _167
REMARK   71  A    between atoms: _166  and  _169
REMARK   72  A    between atoms: _169  and  _170
REMARK   73  A    between atoms: _172  and  _174
REMARK   74  A    between atoms: _174  and  _175
REMARK   75  A    between atoms: _174  and  _177
REMARK   76  A    between atoms: _177  and  _178
REMARK   77  A    between atoms: _178  and  _179
REMARK   78  A    between atoms: _184  and  _186
REMARK   79  A    between atoms: _186  and  _187
REMARK   80  A    between atoms: _186  and  _189
REMARK   81  A    between atoms: _191  and  _193
REMARK   82  A    between atoms: _193  and  _194
REMARK   83  A    between atoms: _193  and  _196
REMARK   84  A    between atoms: _198  and  _200
REMARK   85  A    between atoms: _200  and  _201
REMARK   86  A    between atoms: _200  and  _203
REMARK   87  A    between atoms: _203  and  _204
REMARK   88  A    between atoms: _207  and  _209
REMARK   89  A    between atoms: _209  and  _210
REMARK   90  A    between atoms: _209  and  _212
REMARK   91  A    between atoms: _212  and  _213
REMARK   92  A    between atoms: _216  and  _218
REMARK   93  A    between atoms: _218  and  _219
REMARK   94  A    between atoms: _218  and  _221
REMARK   95  A    between atoms: _221  and  _222
REMARK   96  A    between atoms: _222  and  _223
REMARK   97  A    between atoms: _223  and  _224
REMARK   98  A    between atoms: _224  and  _225
REMARK   99  A    between atoms: _229  and  _231
REMARK  100  A    between atoms: _231  and  _232
REMARK  101  A    between atoms: _231  and  _234
REMARK  102  A    between atoms: _234  and  _235
REMARK  103  A    between atoms: _240  and  _242
REMARK  104  A    between atoms: _242  and  _243
REMARK  105  A    between atoms: _242  and  _245
REMARK  106  A    between atoms: _245  and  _246
REMARK  107  A    between atoms: _251  and  _252
REMARK  108  A    between atoms: _254  and  _256
REMARK  109  A    between atoms: _256  and  _257
REMARK  110  A    between atoms: _256  and  _259
REMARK  111  A    between atoms: _262  and  _264
REMARK  112  A    between atoms: _264  and  _265
REMARK  113  A    between atoms: _264  and  _267
REMARK  114  A    between atoms: _267  and  _268
REMARK  115  A    between atoms: _268  and  _269
REMARK  116  A    between atoms: _269  and  _270
REMARK  117  A    between atoms: _270  and  _271
REMARK  118  A    between atoms: _275  and  _277
REMARK  119  A    between atoms: _277  and  _278
REMARK  120  A    between atoms: _277  and  _280
REMARK  121  A    between atoms: _280  and  _281
REMARK  122  A    between atoms: _284  and  _286
REMARK  123  A    between atoms: _286  and  _287
REMARK  124  A    between atoms: _286  and  _289
REMARK  125  A    between atoms: _289  and  _290
REMARK  126  A    between atoms: _290  and  _291
REMARK  127  A    between atoms: _291  and  _292
REMARK  128  A    between atoms: _292  and  _293
REMARK                            x       y       z     vdW  Elec       q    Type
REMARK                         _______ _______ _______ _____ _____    ______ ____
ROOT
ATOM      1  O   HOH     1      23.842  30.666  30.796  0.00  0.00    +0.000 OA
ENDROOT
TORSDOF 0
REMARK  Name = ../refined-set-2016/4g0z/4g0z_pocket.pdb
REMARK  128 active torsions:
REMARK  status: ('A' for Active; 'I' for Inactive)
REMARK    1  A    between atoms: _1  and  _3
REMARK    2  A    between atoms: _3  and  _4
REMARK    3  A    between atoms: _3  and  _6
REMARK    4  A    between atoms: _6  and  _7
REMARK    5  A    between atoms: _10  and  _12
REMARK    6  A    between atoms: _12  and  _13
REMARK    7  A    between atoms: _12  and  _15
REMARK    8  A    between atoms: _15  and  _16
REMARK    9  A    between atoms: _19  and  _21
REMARK   10  A    between atoms: _21  and  _22
REMARK   11  A    between atoms: _21  and  _24
REMARK   12  A    between atoms: _27  and  _29
REMARK   13  A    between atoms: _29  and  _30
REMARK   14  A    between atoms: _29  and  _32
REMARK   15  A    between atoms: _32  and  _33
REMARK   16  A    between atoms: _37  and  _38
REMARK   17  A    between atoms: _43  and  _45
REMARK   18  A    between atoms: _45  and  _46
REMARK   19  A    between atoms: _45  and  _48
REMARK   20  A    between atoms: _48  and  _49
REMARK   21  A    between atoms: _52  and  _54
REMARK   22  A    between atoms: _54  and  _55
REMARK   23  A    between atoms: _54  and  _57
REMARK   24  A    between atoms: _57  and  _58
REMARK   25  A    between atoms: _63  and  _65
REMARK   26  A    between atoms: _65  and  _66
REMARK   27  A    between atoms: _65  and  _68
REMARK   28  A    between atoms: _68  and  _69
REMARK   29  A    between atoms: _74  and  _76
REMARK   30  A    between atoms: _76  and  _77
REMARK   31  A    between atoms: _79  and  _81
REMARK   32  A    between atoms: _81  and  _82
REMARK   33  A    between atoms: _81  and  _84
REMARK   34  A    between atoms: _84  and  _85
REMARK   35  A    between atoms: _87  and  _89
REMARK   36  A    between atoms: _89  and  _90
REMARK   37  A    between atoms: _89  and  _92
REMARK   38  A    between atoms: _92  and  _93
REMARK   39  A    between atoms: _96  and  _98
REMARK   40  A    between atoms: _98  and  _99
REMARK   41  A    between atoms: _98  and  _101
REMARK   42  A    between atoms: _101  and  _102
REMARK   43  A    between atoms: _107  and  _108
REMARK   44  A    between atoms: _110  and  _112
REMARK   45  A    between atoms: _112  and  _113
REMARK   46  A    between atoms: _115  and  _117
REMARK   47  A    between atoms: _117  and  _118
REMARK   48  A    between atoms: _117  and  _120
REMARK   49  A    between atoms: _120  and  _121
REMARK   50  A    between atoms: _124  and  _126
REMARK   51  A    between atoms: _126  and  _127
REMARK   52  A    between atoms: _126  and  _129
REMARK   53  A    between atoms: _129  and  _130
REMARK   54  A    between atoms: _133  and  _135
REMARK   55  A    between atoms: _135  and  _136
REMARK   56  A    between atoms: _135  and  _138
REMARK   57  A    between atoms: _138  and  _139
REMARK   58  A    between atoms: _139  and  _140
REMARK   59  A    between atoms: _140  and  _141
REMARK   60  A    between atoms: _141  and  _142
REMARK   61  A    between atoms: _146  and  _148
REMARK   62  A    between atoms: _148  and  _149
REMARK   63  A    between atoms: _148  and  _151
REMARK   64  A    between atoms: _151  and  _152
REMARK   65  A    between atoms: _152  and  _153
REMARK   66  A    between atoms: _156  and  _158
REMARK   67  A    between atoms: _158  and  _159
REMARK   68  A    between atoms: _158  and  _161
REMARK   69  A    between atoms: _164  and  _166
REMARK   70  A    between atoms: _166  and  _167
REMARK   71  A    between atoms: _166  and  _169
REMARK   72  A    between atoms: _169  and  _170
REMARK   73  A    between atoms: _172  and  _174
REMARK   74  A    between atoms: _174  and  _175
REMARK   75  A    between atoms: _174  and  _177
REMARK   76  A    between atoms: _177  and  _178
REMARK   77  A    between atoms: _178  and  _179
REMARK   78  A    between atoms: _184  and  _186
REMARK   79  A    between atoms: _186  and  _187
REMARK   80  A    between atoms: _186  and  _189
REMARK   81  A    between atoms: _191  and  _193
REMARK   82  A    between atoms: _193  and  _194
REMARK   83  A    between atoms: _193  and  _196
REMARK   84  A    between atoms: _198  and  _200
REMARK   85  A    between atoms: _200  and  _201
REMARK   86  A    between atoms: _200  and  _203
REMARK   87  A    between atoms: _203  and  _204
REMARK   88  A    between atoms: _207  and  _209
REMARK   89  A    between atoms: _209  and  _210
REMARK   90  A    between atoms: _209  and  _212
REMARK   91  A    between atoms: _212  and  _213
REMARK   92  A    between atoms: _216  and  _218
REMARK   93  A    between atoms: _218  and  _219
REMARK   94  A    between atoms: _218  and  _221
REMARK   95  A    between atoms: _221  and  _222
REMARK   96  A    between atoms: _222  and  _223
REMARK   97  A    between atoms: _223  and  _224
REMARK   98  A    between atoms: _224  and  _225
REMARK   99  A    between atoms: _229  and  _231
REMARK  100  A    between atoms: _231  and  _232
REMARK  101  A    between atoms: _231  and  _234
REMARK  102  A    between atoms: _234  and  _235
REMARK  103  A    between atoms: _240  and  _242
REMARK  104  A    between atoms: _242  and  _243
REMARK  105  A    between atoms: _242  and  _245
REMARK  106  A    between atoms: _245  and  _246
REMARK  107  A    between atoms: _251  and  _252
REMARK  108  A    between atoms: _254  and  _256
REMARK  109  A    between atoms: _256  and  _257
REMARK  110  A    between atoms: _256  and  _259
REMARK  111  A    between atoms: _262  and  _264
REMARK  112  A    between atoms: _264  and  _265
REMARK  113  A    between atoms: _264  and  _267
REMARK  114  A    between atoms: _267  and  _268
REMARK  115  A    between atoms: _268  and  _269
REMARK  116  A    between atoms: _269  and  _270
REMARK  117  A    between atoms: _270  and  _271
REMARK  118  A    between atoms: _275  and  _277
REMARK  119  A    between atoms: _277  and  _278
REMARK  120  A    between atoms: _277  and  _280
REMARK  121  A    between atoms: _280  and  _281
REMARK  122  A    between atoms: _284  and  _286
REMARK  123  A    between atoms: _286  and  _287
REMARK  124  A    between atoms: _286  and  _289
REMARK  125  A    between atoms: _289  and  _290
REMARK  126  A    between atoms: _290  and  _291
REMARK  127  A    between atoms: _291  and  _292
REMARK  128  A    between atoms: _292  and  _293
REMARK                            x       y       z     vdW  Elec       q    Type
REMARK                         _______ _______ _______ _____ _____    ______ ____
ROOT
ATOM      1  O   HOH     1      25.642  28.395  30.587  0.00  0.00    +0.000 OA
ENDROOT
TORSDOF 0
REMARK  Name = ../refined-set-2016/4g0z/4g0z_pocket.pdb
REMARK  128 active torsions:
REMARK  status: ('A' for Active; 'I' for Inactive)
REMARK    1  A    between atoms: _1  and  _3
REMARK    2  A    between atoms: _3  and  _4
REMARK    3  A    between atoms: _3  and  _6
REMARK    4  A    between atoms: _6  and  _7
REMARK    5  A    between atoms: _10  and  _12
REMARK    6  A    between atoms: _12  and  _13
REMARK    7  A    between atoms: _12  and  _15
REMARK    8  A    between atoms: _15  and  _16
REMARK    9  A    between atoms: _19  and  _21
REMARK   10  A    between atoms: _21  and  _22
REMARK   11  A    between atoms: _21  and  _24
REMARK   12  A    between atoms: _27  and  _29
REMARK   13  A    between atoms: _29  and  _30
REMARK   14  A    between atoms: _29  and  _32
REMARK   15  A    between atoms: _32  and  _33
REMARK   16  A    between atoms: _37  and  _38
REMARK   17  A    between atoms: _43  and  _45
REMARK   18  A    between atoms: _45  and  _46
REMARK   19  A    between atoms: _45  and  _48
REMARK   20  A    between atoms: _48  and  _49
REMARK   21  A    between atoms: _52  and  _54
REMARK   22  A    between atoms: _54  and  _55
REMARK   23  A    between atoms: _54  and  _57
REMARK   24  A    between atoms: _57  and  _58
REMARK   25  A    between atoms: _63  and  _65
REMARK   26  A    between atoms: _65  and  _66
REMARK   27  A    between atoms: _65  and  _68
REMARK   28  A    between atoms: _68  and  _69
REMARK   29  A    between atoms: _74  and  _76
REMARK   30  A    between atoms: _76  and  _77
REMARK   31  A    between atoms: _79  and  _81
REMARK   32  A    between atoms: _81  and  _82
REMARK   33  A    between atoms: _81  and  _84
REMARK   34  A    between atoms: _84  and  _85
REMARK   35  A    between atoms: _87  and  _89
REMARK   36  A    between atoms: _89  and  _90
REMARK   37  A    between atoms: _89  and  _92
REMARK   38  A    between atoms: _92  and  _93
REMARK   39  A    between atoms: _96  and  _98
REMARK   40  A    between atoms: _98  and  _99
REMARK   41  A    between atoms: _98  and  _101
REMARK   42  A    between atoms: _101  and  _102
REMARK   43  A    between atoms: _107  and  _108
REMARK   44  A    between atoms: _110  and  _112
REMARK   45  A    between atoms: _112  and  _113
REMARK   46  A    between atoms: _115  and  _117
REMARK   47  A    between atoms: _117  and  _118
REMARK   48  A    between atoms: _117  and  _120
REMARK   49  A    between atoms: _120  and  _121
REMARK   50  A    between atoms: _124  and  _126
REMARK   51  A    between atoms: _126  and  _127
REMARK   52  A    between atoms: _126  and  _129
REMARK   53  A    between atoms: _129  and  _130
REMARK   54  A    between atoms: _133  and  _135
REMARK   55  A    between atoms: _135  and  _136
REMARK   56  A    between atoms: _135  and  _138
REMARK   57  A    between atoms: _138  and  _139
REMARK   58  A    between atoms: _139  and  _140
REMARK   59  A    between atoms: _140  and  _141
REMARK   60  A    between atoms: _141  and  _142
REMARK   61  A    between atoms: _146  and  _148
REMARK   62  A    between atoms: _148  and  _149
REMARK   63  A    between atoms: _148  and  _151
REMARK   64  A    between atoms: _151  and  _152
REMARK   65  A    between atoms: _152  and  _153
REMARK   66  A    between atoms: _156  and  _158
REMARK   67  A    between atoms: _158  and  _159
REMARK   68  A    between atoms: _158  and  _161
REMARK   69  A    between atoms: _164  and  _166
REMARK   70  A    between atoms: _166  and  _167
REMARK   71  A    between atoms: _166  and  _169
REMARK   72  A    between atoms: _169  and  _170
REMARK   73  A    between atoms: _172  and  _174
REMARK   74  A    between atoms: _174  and  _175
REMARK   75  A    between atoms: _174  and  _177
REMARK   76  A    between atoms: _177  and  _178
REMARK   77  A    between atoms: _178  and  _179
REMARK   78  A    between atoms: _184  and  _186
REMARK   79  A    between atoms: _186  and  _187
REMARK   80  A    between atoms: _186  and  _189
REMARK   81  A    between atoms: _191  and  _193
REMARK   82  A    between atoms: _193  and  _194
REMARK   83  A    between atoms: _193  and  _196
REMARK   84  A    between atoms: _198  and  _200
REMARK   85  A    between atoms: _200  and  _201
REMARK   86  A    between atoms: _200  and  _203
REMARK   87  A    between atoms: _203  and  _204
REMARK   88  A    between atoms: _207  and  _209
REMARK   89  A    between atoms: _209  and  _210
REMARK   90  A    between atoms: _209  and  _212
REMARK   91  A    between atoms: _212  and  _213
REMARK   92  A    between atoms: _216  and  _218
REMARK   93  A    between atoms: _218  and  _219
REMARK   94  A    between atoms: _218  and  _221
REMARK   95  A    between atoms: _221  and  _222
REMARK   96  A    between atoms: _222  and  _223
REMARK   97  A    between atoms: _223  and  _224
REMARK   98  A    between atoms: _224  and  _225
REMARK   99  A    between atoms: _229  and  _231
REMARK  100  A    between atoms: _231  and  _232
REMARK  101  A    between atoms: _231  and  _234
REMARK  102  A    between atoms: _234  and  _235
REMARK  103  A    between atoms: _240  and  _242
REMARK  104  A    between atoms: _242  and  _243
REMARK  105  A    between atoms: _242  and  _245
REMARK  106  A    between atoms: _245  and  _246
REMARK  107  A    between atoms: _251  and  _252
REMARK  108  A    between atoms: _254  and  _256
REMARK  109  A    between atoms: _256  and  _257
REMARK  110  A    between atoms: _256  and  _259
REMARK  111  A    between atoms: _262  and  _264
REMARK  112  A    between atoms: _264  and  _265
REMARK  113  A    between atoms: _264  and  _267
REMARK  114  A    between atoms: _267  and  _268
REMARK  115  A    between atoms: _268  and  _269
REMARK  116  A    between atoms: _269  and  _270
REMARK  117  A    between atoms: _270  and  _271
REMARK  118  A    between atoms: _275  and  _277
REMARK  119  A    between atoms: _277  and  _278
REMARK  120  A    between atoms: _277  and  _280
REMARK  121  A    between atoms: _280  and  _281
REMARK  122  A    between atoms: _284  and  _286
REMARK  123  A    between atoms: _286  and  _287
REMARK  124  A    between atoms: _286  and  _289
REMARK  125  A    between atoms: _289  and  _290
REMARK  126  A    between atoms: _290  and  _291
REMARK  127  A    between atoms: _291  and  _292
REMARK  128  A    between atoms: _292  and  _293
REMARK                            x       y       z     vdW  Elec       q    Type
REMARK                         _______ _______ _______ _____ _____    ______ ____
ROOT
ATOM      1  O   HOH     1      24.408  24.095  30.352  0.00  0.00    +0.000 OA
ENDROOT
TORSDOF 0
